       6
 i =        0, time =        0.000, E =      -180.7156923261
 Ti         0.0000261980        0.0000088136       -0.0000391253
 Ti        -0.0001030829        0.0000786430       -0.0000658513
  O        -0.0002611133       -0.0000153354       -0.0002207638
  O         0.0002762754       -0.0001909644        0.0001621703
  O         0.0002453944       -0.0000321406        0.0000636964
  O        -0.0000305323       -0.0000232122        0.0003089662
       6
 i =        1, time =        1.000, E =      -180.7224308048
 Ti         0.0000239396        0.0000085988       -0.0000414225
 Ti        -0.0000993264        0.0000759879       -0.0000641424
  O        -0.0003494395        0.0000829119       -0.0002110699
  O         0.0003665831       -0.0002829593        0.0001561108
  O         0.0003375605        0.0000682779        0.0000656779
  O        -0.0001285425       -0.0001206722        0.0003009356
       6
 i =        2, time =        2.000, E =      -180.7286746574
 Ti         0.0000231788        0.0000108427       -0.0000521358
 Ti        -0.0001097433        0.0000839557       -0.0000732649
  O        -0.0004779224        0.0001855811       -0.0002220931
  O         0.0005046611       -0.0004115754        0.0001741742
  O         0.0004738722        0.0001745188        0.0000816183
  O        -0.0002394342       -0.0002316326        0.0003359991
       6
 i =        3, time =        3.000, E =      -180.7367668165
 Ti         0.0000182250        0.0000133392       -0.0000611721
 Ti        -0.0001101724        0.0000840570       -0.0000774818
  O        -0.0005557798        0.0002681085       -0.0002054093
  O         0.0005949792       -0.0005023528        0.0001759557
  O         0.0005669848        0.0002662449        0.0000952576
  O        -0.0003280856       -0.0003227916        0.0003417300
       6
 i =        4, time =        4.000, E =      -180.7458355683
 Ti         0.0000117054        0.0000169810       -0.0000731511
 Ti        -0.0001114180        0.0000845549       -0.0000838773
  O        -0.0006198014        0.0003401759       -0.0001841119
  O         0.0006755886       -0.0005845880        0.0001787267
  O         0.0006519572        0.0003513039        0.0001137143
  O        -0.0004085512       -0.0004073724        0.0003520789
       6
 i =        5, time =        5.000, E =      -180.7552701576
 Ti         0.0000037141        0.0000220490       -0.0000893771
 Ti        -0.0001150742        0.0000866438       -0.0000938611
  O        -0.0006785464        0.0004061268       -0.0001607768
  O         0.0007562356       -0.0006650838        0.0001858837
  O         0.0007376317        0.0004340224        0.0001388527
  O        -0.0004855388       -0.0004901537        0.0003733607
       6
 i =        6, time =        6.000, E =      -180.7642311417
 Ti        -0.0000061302        0.0000273658       -0.0001048970
 Ti        -0.0001143518        0.0000851815       -0.0001022017
  O        -0.0006951605        0.0004413895       -0.0001255117
  O         0.0007965190       -0.0007066283        0.0001872454
  O         0.0007843652        0.0004879619        0.0001630596
  O        -0.0005295486       -0.0005414257        0.0003845459
       6
 i =        7, time =        7.000, E =      -180.7725173768
 Ti        -0.0000173329        0.0000340301       -0.0001240684
 Ti        -0.0001156151        0.0000849464       -0.0001139404
  O        -0.0007092902        0.0004658378       -0.0000882819
  O         0.0008383094       -0.0007472017        0.0001932896
  O         0.0008338419        0.0005332160        0.0001932516
  O        -0.0005649531       -0.0005855634        0.0004055967
       6
 i =        8, time =        8.000, E =      -180.7791481029
 Ti        -0.0000305938        0.0000425393       -0.0001479838
 Ti        -0.0001191915        0.0000860101       -0.0001300005
  O        -0.0007225119        0.0004819941       -0.0000472875
  O         0.0008822383       -0.0007905530        0.0002049371
  O         0.0008880143        0.0005732079        0.0002314242
  O        -0.0005963624       -0.0006277839        0.0004369468
       6
 i =        9, time =        9.000, E =      -180.7837806267
 Ti        -0.0000460353        0.0000526160       -0.0001745990
 Ti        -0.0001229755        0.0000866755       -0.0001486556
  O        -0.0007188422        0.0004828500        0.0000001157
  O         0.0009111642       -0.0008195253        0.0002192000
  O         0.0009295038        0.0006003274        0.0002751621
  O        -0.0006157374       -0.0006601471        0.0004699231
       6
 i =       10, time =       10.000, E =      -180.7862793641
 Ti        -0.0000642112        0.0000649295       -0.0002049079
 Ti        -0.0001278793        0.0000874915       -0.0001710838
  O        -0.0007044477        0.0004741165        0.0000539602
  O         0.0009360645       -0.0008388481        0.0002377838
  O         0.0009692895        0.0006205837        0.0003268922
  O        -0.0006277042       -0.0006877370        0.0005070163
       6
 i =       11, time =       11.000, E =      -180.7859873570
 Ti        -0.0000815019        0.0000758252       -0.0002264150
 Ti        -0.0001267518        0.0000834810       -0.0001870166
  O        -0.0006460623        0.0004316421        0.0001099614
  O         0.0009075926       -0.0008063078        0.0002464534
  O         0.0009572332        0.0005987417        0.0003673450
  O        -0.0005953325       -0.0006698416        0.0005198156
       6
 i =       12, time =       12.000, E =      -180.7829589477
 Ti        -0.0001013549        0.0000885221       -0.0002471102
 Ti        -0.0001244307        0.0000775596       -0.0002034189
  O        -0.0005723445        0.0003724641        0.0001721557
  O         0.0008580964       -0.0007552755        0.0002536426
  O         0.0009282899        0.0005552372        0.0004099218
  O        -0.0005397504       -0.0006312236        0.0005303012
       6
 i =       13, time =       13.000, E =      -180.7772960877
 Ti        -0.0001211874        0.0001011710       -0.0002608511
 Ti        -0.0001188528        0.0000683947       -0.0002158194
  O        -0.0004779474        0.0002936354        0.0002339325
  O         0.0007767108       -0.0006726795        0.0002529435
  O         0.0008695059        0.0004818574        0.0004430330
  O        -0.0004561993       -0.0005662621        0.0005302291
       6
 i =       14, time =       14.000, E =      -180.7700568735
 Ti        -0.0001483704        0.0001198764       -0.0002808165
 Ti        -0.0001161083        0.0000589799       -0.0002355650
  O        -0.0003853482        0.0002093144        0.0003088045
  O         0.0007078478       -0.0005907370        0.0002556923
  O         0.0008312825        0.0004034507        0.0004877335
  O        -0.0003691122       -0.0005065665        0.0005464819
       6
 i =       15, time =       15.000, E =      -180.7618814208
 Ti        -0.0001751278        0.0001384501       -0.0002902182
 Ti        -0.0001096443        0.0000455779       -0.0002490039
  O        -0.0002735759        0.0001084920        0.0003784540
  O         0.0006135089       -0.0004793373        0.0002456749
  O         0.0007677983        0.0002991852        0.0005138983
  O        -0.0002590396       -0.0004245980        0.0005454109
       6
 i =       16, time =       16.000, E =      -180.7551035084
 Ti        -0.0001952048        0.0001520834       -0.0002773282
 Ti        -0.0000954559        0.0000262339       -0.0002463499
  O        -0.0001351407       -0.0000102625        0.0004267622
  O         0.0004704034       -0.0003246648        0.0002124649
  O         0.0006488816        0.0001597529        0.0005010682
  O        -0.0001176054       -0.0003048356        0.0005039453
       6
 i =       17, time =       17.000, E =      -180.7502057086
 Ti        -0.0002280796        0.0001765457       -0.0002732739
 Ti        -0.0000856448        0.0000056172       -0.0002545894
  O        -0.0000022363       -0.0001323095        0.0004946141
  O         0.0003464957       -0.0001811553        0.0001823187
  O         0.0005602732        0.0000182840        0.0005061778
  O         0.0000265131       -0.0001939592        0.0004811831
       6
 i =       18, time =       18.000, E =      -180.7491015047
 Ti        -0.0002539870        0.0001966149       -0.0002504959
 Ti        -0.0000710752       -0.0000186070       -0.0002491301
  O         0.0001351282       -0.0002527361        0.0005403108
  O         0.0001997345       -0.0000197739        0.0001351247
  O         0.0004426365       -0.0001383733        0.0004807096
  O         0.0001820275       -0.0000647900        0.0004294198
       6
 i =       19, time =       19.000, E =      -180.7523607019
 Ti        -0.0002736995        0.0002128997       -0.0002153902
 Ti        -0.0000546718       -0.0000439028       -0.0002343896
  O         0.0002627982       -0.0003602288        0.0005695646
  O         0.0000522224        0.0001400521        0.0000792717
  O         0.0003176715       -0.0002938300        0.0004344850
  O         0.0003331435        0.0000652884        0.0003629055
       6
 i =       20, time =       20.000, E =      -180.7604944530
 Ti        -0.0002932109        0.0002301398       -0.0001768349
 Ti        -0.0000392165       -0.0000696625       -0.0002182253
  O         0.0003800374       -0.0004574445        0.0005982327
  O        -0.0000838107        0.0002913868        0.0000222040
  O         0.0002018024       -0.0004451771        0.0003816675
  O         0.0004784216        0.0001881319        0.0002972499
       6
 i =       21, time =       21.000, E =      -180.7724551138
 Ti        -0.0003257803        0.0002587897       -0.0001435046
 Ti        -0.0000267368       -0.0000989023       -0.0002110761
  O         0.0005052892       -0.0005673685        0.0006529897
  O        -0.0002120942        0.0004481289       -0.0000335865
  O         0.0001027834       -0.0006114600        0.0003388451
  O         0.0006387822        0.0003118826        0.0002462853
       6
 i =       22, time =       22.000, E =      -180.7857759192
 Ti        -0.0003497062        0.0002802242       -0.0001076537
 Ti        -0.0000156321       -0.0001244861       -0.0001989573
  O         0.0006063714       -0.0006545872        0.0006867502
  O        -0.0003182154        0.0005799099       -0.0000844940
  O         0.0000119741       -0.0007478246        0.0002825681
  O         0.0007681575        0.0004159856        0.0001935006
       6
 i =       23, time =       23.000, E =      -180.8016775064
 Ti        -0.0003664793        0.0002952958       -0.0000727465
 Ti        -0.0000069931       -0.0001456486       -0.0001848872
  O         0.0006867029       -0.0007207337        0.0007033565
  O        -0.0003982268        0.0006823506       -0.0001271118
  O        -0.0000668590       -0.0008516042        0.0002189682
  O         0.0008646172        0.0004999403        0.0001433113
       6
 i =       24, time =       24.000, E =      -180.8144486455
 Ti        -0.0003676158        0.0002979320       -0.0000393400
 Ti        -0.0000025530       -0.0001569339       -0.0001689441
  O         0.0007313829       -0.0007468011        0.0006944528
  O        -0.0004389630        0.0007331579       -0.0001543970
  O        -0.0001278276       -0.0009036474        0.0001509620
  O         0.0009097255        0.0005509393        0.0000966219
       6
 i =       25, time =       25.000, E =      -180.8277114692
 Ti        -0.0003793925        0.0003088243       -0.0000129293
 Ti        -0.0000027898       -0.0001686034       -0.0001641252
  O         0.0007894976       -0.0007849973        0.0007143574
  O        -0.0004711851        0.0007830103       -0.0001750710
  O        -0.0001776588       -0.0009669986        0.0000952394
  O         0.0009689797        0.0006065637        0.0000634578
       6
 i =       26, time =       26.000, E =      -180.8379861909
 Ti        -0.0003851454        0.0003139350        0.0000078226
 Ti        -0.0000066335       -0.0001741280       -0.0001609172
  O         0.0008259836       -0.0008060809        0.0007294436
  O        -0.0004784851        0.0008038030       -0.0001828824
  O        -0.0002120582       -0.0009967743        0.0000463680
  O         0.0009981382        0.0006408855        0.0000393890
       6
 i =       27, time =       27.000, E =      -180.8446797877
 Ti        -0.0003834778        0.0003116343        0.0000226103
 Ti        -0.0000140584       -0.0001723903       -0.0001588165
  O         0.0008401941       -0.0008107955        0.0007334018
  O        -0.0004622686        0.0007941040       -0.0001780610
  O        -0.0002315707       -0.0009906700        0.0000055269
  O         0.0009951880        0.0006508827        0.0000237347
       6
 i =       28, time =       28.000, E =      -180.8486127824
 Ti        -0.0003740425        0.0003015600        0.0000315166
 Ti        -0.0000246823       -0.0001631566       -0.0001573332
  O         0.0008353365       -0.0007965992        0.0007250825
  O        -0.0004246264        0.0007517194       -0.0001620981
  O        -0.0002376191       -0.0009538536       -0.0000266411
  O         0.0009663586        0.0006386907        0.0000156083
       6
 i =       29, time =       29.000, E =      -180.8486434300
 Ti        -0.0003741887        0.0002975055        0.0000364739
 Ti        -0.0000392598       -0.0001540487       -0.0001632209
  O         0.0008488424       -0.0007988624        0.0007417242
  O        -0.0003865270        0.0007141193       -0.0001447173
  O        -0.0002427831       -0.0009306842       -0.0000516581
  O         0.0009567360        0.0006388125        0.0000147951
       6
 i =       30, time =       30.000, E =      -180.8463484884
 Ti        -0.0003578600        0.0002781447        0.0000359976
 Ti        -0.0000556304       -0.0001338887       -0.0001647112
  O         0.0008196566       -0.0007657666        0.0007343432
  O        -0.0003198568        0.0006355516       -0.0001169833
  O        -0.0002316985       -0.0008552771       -0.0000683724
  O         0.0008986739        0.0006096283        0.0000188362
       6
 i =       31, time =       31.000, E =      -180.8427875274
 Ti        -0.0003480828        0.0002617842        0.0000330497
 Ti        -0.0000757540       -0.0001124861       -0.0001708178
  O         0.0008024561       -0.0007500423        0.0007452507
  O        -0.0002510093        0.0005645205       -0.0000899900
  O        -0.0002203155       -0.0007917507       -0.0000806687
  O         0.0008577350        0.0005898404        0.0000273249
       6
 i =       32, time =       32.000, E =      -180.8376019446
 Ti        -0.0003332919        0.0002391671        0.0000271422
 Ti        -0.0000983851       -0.0000851567       -0.0001759929
  O         0.0007749488       -0.0007254811        0.0007489289
  O        -0.0001702633        0.0004792378       -0.0000609297
  O        -0.0002021080       -0.0007155560       -0.0000881368
  O         0.0008083412        0.0005586828        0.0000388476
       6
 i =       33, time =       33.000, E =      -180.8320400546
 Ti        -0.0003105845        0.0002088317        0.0000188799
 Ti        -0.0001209731       -0.0000527649       -0.0001776286
  O         0.0007285825       -0.0006825031        0.0007391731
  O        -0.0000824489        0.0003790346       -0.0000323316
  O        -0.0001767714       -0.0006215166       -0.0000906160
  O         0.0007419917        0.0005130716        0.0000512810
       6
 i =       34, time =       34.000, E =      -180.8264224999
 Ti        -0.0002913317        0.0001783090        0.0000094120
 Ti        -0.0001478326       -0.0000174655       -0.0001817738
  O         0.0006868528       -0.0006472715        0.0007477567
  O         0.0000078040        0.0002788615       -0.0000069455
  O        -0.0001513010       -0.0005312387       -0.0000922864
  O         0.0006859516        0.0004750066        0.0000655712
       6
 i =       35, time =       35.000, E =      -180.8215225343
 Ti        -0.0002670844        0.0001423154       -0.0000011972
 Ti        -0.0001746824        0.0000211803       -0.0001828300
  O         0.0006307455       -0.0006043054        0.0007536171
  O         0.0000992043        0.0001723297        0.0000141985
  O        -0.0001217517       -0.0004315652       -0.0000912921
  O         0.0006245105        0.0004330254        0.0000793734
       6
 i =       36, time =       36.000, E =      -180.8180342568
 Ti        -0.0002356529        0.0001011564       -0.0000118444
 Ti        -0.0001974627        0.0000603597       -0.0001782148
  O         0.0005585351       -0.0005489641        0.0007437757
  O         0.0001833495        0.0000656679        0.0000286112
  O        -0.0000890108       -0.0003257309       -0.0000874142
  O         0.0005554097        0.0003841539        0.0000904360
       6
 i =       37, time =       37.000, E =      -180.8153487041
 Ti        -0.0001965532        0.0000551381       -0.0000220649
 Ti        -0.0002147076        0.0000988586       -0.0001668743
  O         0.0004702647       -0.0004777751        0.0007144984
  O         0.0002572237       -0.0000388190        0.0000350400
  O        -0.0000535307       -0.0002143486       -0.0000811017
  O         0.0004758596        0.0003264074        0.0000980794
       6
 i =       38, time =       38.000, E =      -180.8137656715
 Ti        -0.0001678400        0.0000106706       -0.0000333273
 Ti        -0.0002432922        0.0001430590       -0.0001623859
  O         0.0004072814       -0.0004313218        0.0007294999
  O         0.0003388370       -0.0001401327        0.0000349383
  O        -0.0000210673       -0.0001183559       -0.0000799839
  O         0.0004257860        0.0002877719        0.0001101978
       6
 i =       39, time =       39.000, E =      -180.8133974514
 Ti        -0.0001312927       -0.0000363851       -0.0000431248
 Ti        -0.0002614705        0.0001820051       -0.0001482432
  O         0.0003242814       -0.0003643415        0.0007217685
  O         0.0004007909       -0.0002313672        0.0000237396
  O         0.0000129091       -0.0000178237       -0.0000767140
  O         0.0003580802        0.0002361482        0.0001169331
       6
 i =       40, time =       40.000, E =      -180.8141614520
 Ti        -0.0000983992       -0.0000851151       -0.0000534850
 Ti        -0.0002853050        0.0002249249       -0.0001347876
  O         0.0002485720       -0.0003071202        0.0007379134
  O         0.0004658544       -0.0003203558        0.0000020352
  O         0.0000471695        0.0000806432       -0.0000771876
  O         0.0003009157        0.0001899990        0.0001257860
       6
 i =       41, time =       41.000, E =      -180.8150707161
 Ti        -0.0000631590       -0.0001300203       -0.0000607600
 Ti        -0.0002963659        0.0002570661       -0.0001130335
  O         0.0001654671       -0.0002420750        0.0007266684
  O         0.0005054857       -0.0003852457       -0.0000314102
  O         0.0000788599        0.0001733289       -0.0000769108
  O         0.0002355436        0.0001374838        0.0001290837
       6
 i =       42, time =       42.000, E =      -180.8174334507
 Ti        -0.0000318686       -0.0001775049       -0.0000684607
 Ti        -0.0003141497        0.0002939051       -0.0000912860
  O         0.0000917722       -0.0001908206        0.0007387998
  O         0.0005530420       -0.0004478516       -0.0000783645
  O         0.0001120489        0.0002689162       -0.0000816502
  O         0.0001813565        0.0000906791        0.0001357586
       6
 i =       43, time =       43.000, E =      -180.8202570901
 Ti        -0.0000010727       -0.0002231577       -0.0000739627
 Ti        -0.0003266081        0.0003252260       -0.0000636848
  O         0.0000192377       -0.0001425712        0.0007479622
  O         0.0005876715       -0.0004935337       -0.0001402429
  O         0.0001447752        0.0003643705       -0.0000888946
  O         0.0001264336        0.0000419981        0.0001408399
       6
 i =       44, time =       44.000, E =      -180.8231515736
 Ti         0.0000281127       -0.0002623135       -0.0000757146
 Ti        -0.0003287434        0.0003449882       -0.0000299485
  O        -0.0000492016       -0.0000975401        0.0007444510
  O         0.0005970168       -0.0005141192       -0.0002143734
  O         0.0001742177        0.0004522795       -0.0000978985
  O         0.0000704145       -0.0000075157        0.0001425343
       6
 i =       45, time =       45.000, E =      -180.8260748162
 Ti         0.0000544782       -0.0002972618       -0.0000746249
 Ti        -0.0003262577        0.0003576974        0.0000073293
  O        -0.0001099600       -0.0000603275        0.0007377414
  O         0.0005887845       -0.0005173947       -0.0003005074
  O         0.0002019222        0.0005348399       -0.0001107230
  O         0.0000173636       -0.0000549717        0.0001435923
       6
 i =       46, time =       46.000, E =      -180.8285399514
 Ti         0.0000755250       -0.0003181441       -0.0000684799
 Ti        -0.0003103523        0.0003525810        0.0000455117
  O        -0.0001573126       -0.0000303953        0.0007048894
  O         0.0005484078       -0.0004879928       -0.0003848574
  O         0.0002211846        0.0005917597       -0.0001243209
  O        -0.0000312466       -0.0000964639        0.0001402259
       6
 i =       47, time =       47.000, E =      -180.8302952872
 Ti         0.0000954298       -0.0003400664       -0.0000601648
 Ti        -0.0002953609        0.0003456519        0.0000862632
  O        -0.0001997190       -0.0000077763        0.0006804215
  O         0.0005037506       -0.0004462943       -0.0004837682
  O         0.0002428372        0.0006510670       -0.0001453344
  O        -0.0000780233       -0.0001368455        0.0001390760
       6
 i =       48, time =       48.000, E =      -180.8317626131
 Ti         0.0001086697       -0.0003431754       -0.0000464173
 Ti        -0.0002652382        0.0003175131        0.0001220813
  O        -0.0002255472        0.0000086510        0.0006293809
  O         0.0004299114       -0.0003678223       -0.0005615767
  O         0.0002527285        0.0006762469       -0.0001653854
  O        -0.0001175657       -0.0001669322        0.0001323366
       6
 i =       49, time =       49.000, E =      -180.8341626062
 Ti         0.0001206472       -0.0003449872       -0.0000302988
 Ti        -0.0002358310        0.0002864396        0.0001551254
  O        -0.0002458027        0.0000197138        0.0005872201
  O         0.0003542390       -0.0002778641       -0.0006346024
  O         0.0002632537        0.0007018880       -0.0001918164
  O        -0.0001536438       -0.0001931115        0.0001270966
       6
 i =       50, time =       50.000, E =      -180.8348030308
 Ti         0.0001335322       -0.0003500901       -0.0000121516
 Ti        -0.0002102991        0.0002562509        0.0001861751
  O        -0.0002653420        0.0000271968        0.0005572977
  O         0.0002807648       -0.0001820785       -0.0007054853
  O         0.0002780433        0.0007356321       -0.0002275530
  O        -0.0001887119       -0.0002181056        0.0001248189
       6
 i =       51, time =       51.000, E =      -180.8352186813
 Ti         0.0001481287       -0.0003584874        0.0000086710
 Ti        -0.0001876110        0.0002256346        0.0002154288
  O        -0.0002866388        0.0000326561        0.0005342092
  O         0.0002063478       -0.0000783844       -0.0007754403
  O         0.0002976575        0.0007750648       -0.0002746563
  O        -0.0002242273       -0.0002431092        0.0001252117
       6
 i =       52, time =       52.000, E =      -180.8355140372
 Ti         0.0001607961       -0.0003605823        0.0000318804
 Ti        -0.0001631051        0.0001889006        0.0002360785
  O        -0.0003036574        0.0000363304        0.0005039416
  O         0.0001267558        0.0000333730       -0.0008235386
  O         0.0003136142        0.0007985018       -0.0003258096
  O        -0.0002537339       -0.0002618582        0.0001247170
