       6
 i =       48, time =       48.000, E =      -180.8317626131
 Ti         2.1559905151        2.4123088990        1.3881210402
 Ti        -0.1418295283        0.0549283229       -0.1512058353
  O         1.0130015931        3.5259723755        1.9758615989
  O         4.0432609854        0.7963082648        1.4971775992
  O         1.6955619265        1.3418664885        0.1220029620
  O         3.4427806618        3.2728441648        0.2514377712
