       6
 i =       37, time =       37.000, E =      -180.8153487041
 Ti         2.1621539599        2.4560948465        1.4023393829
 Ti        -0.0711966433       -0.0115544702       -0.1373185770
  O         0.9942732276        3.5718433300        1.8025058876
  O         3.9240588412        0.8885019402        1.5366032616
  O         1.6668669120        1.2716825083        0.1454428196
  O         3.4038258887        3.2560668794        0.2199874646
