       6
 i =       45, time =       45.000, E =      -180.8260748162
 Ti         2.1504289888        2.4337844961        1.3923134370
 Ti        -0.1220426071        0.0321428969       -0.1554900672
  O         1.0246016045        3.5272704360        1.9305687751
  O         4.0089016935        0.8267609333        1.5255317762
  O         1.6804165755        1.3013234145        0.1308330598
  O         3.4463066521        3.2804253914        0.2423077884
