       6
 i =       32, time =       32.000, E =      -180.8376019446
 Ti         2.1923125167        2.4389341692        1.4019389416
 Ti        -0.0536469941       -0.0119275435       -0.1176560185
  O         0.9231842613        3.6397327692        1.7208109687
  O         3.9184158175        0.8640141226        1.5366547016
  O         1.6815556257        1.3238917326        0.1552949233
  O         3.3324153345        3.2066566888        0.2121577963
