       6
 i =       38, time =       38.000, E =      -180.8137656715
 Ti         2.1581132225        2.4568372213        1.4017264650
 Ti        -0.0762678149       -0.0088819649       -0.1409791291
  O         1.0040071455        3.5617591739        1.8184523714
  O         3.9306860944        0.8865033685        1.5374276710
  O         1.6660368415        1.2680018051        0.1436643460
  O         3.4138062962        3.2628704269        0.2222974336
