       6
 i =       49, time =       49.000, E =      -180.8341626062
 Ti         2.1584819736        2.4048385291        1.3872750820
 Ti        -0.1472597752        0.0614942119       -0.1481792508
  O         1.0078627541        3.5263046427        1.9890141900
  O         4.0517775229        0.7892481538        1.4841559638
  O         1.7011549707        1.3568112340        0.1181632099
  O         3.4398215555        3.2689178515        0.2542442636
