       6
 i =       36, time =       36.000, E =      -180.8180342568
 Ti         2.1669395583        2.4543612134        1.4027173037
 Ti        -0.0666262444       -0.0133212684       -0.1334855402
  O         0.9828896377        3.5832139417        1.7863674073
  O         3.9191353148        0.8882465591        1.5358541800
  O         1.6684406685        1.2776272532        0.1473062662
  O         3.3924375435        3.2482129153        0.2178931222
