       6
 i =       34, time =       34.000, E =      -180.8264224999
 Ti         2.1786448830        2.4481240550        1.4027697740
 Ti        -0.0589705572       -0.0142495226       -0.1254727749
  O         0.9552463868        3.6096984190        1.7533391495
  O         3.9147875567        0.8806939847        1.5352319131
  O         1.6737765945        1.2965411671        0.1513072607
  O         3.3650675507        3.2292350083        0.2144144787
