       6
 i =        5, time =        5.000, E =      -180.7552701576
 Ti         2.3286978243        2.3280297063        1.4782879936
 Ti        -0.0117984622        0.0089949151       -0.0082292824
  O         0.8549123801        3.7676341051        1.4622404614
  O         3.8022823292        0.8608167849        1.5033553552
  O         1.4726407250        1.4406591776        0.0098790524
  O         3.2059721311        3.2065326988        0.0365000696
