       6
 i =       28, time =       28.000, E =      -180.8486127824
 Ti         2.2239956172        2.4144009702        1.3988892606
 Ti        -0.0486003475       -0.0002368954       -0.1030024013
  O         0.8507480633        3.7076771530        1.6555813973
  O         3.9463778954        0.8079291267        1.5469486960
  O         1.7018696642        1.3994451699        0.1611007733
  O         3.2528230982        3.1527608667        0.2103096575
