       6
 i =       39, time =       39.000, E =      -180.8133974514
 Ti         2.1548647082        2.4565582674        1.4008919877
 Ti        -0.0817627641       -0.0053414533       -0.1443709586
  O         1.0119613594        3.5531111288        1.8341878883
  O         3.9387744502        0.8824160134        1.5381206213
  O         1.6659519632        1.2665423426        0.1419691372
  O         3.4223176685        3.2685647404        0.2247733263
