       6
 i =       33, time =       33.000, E =      -180.8320400546
 Ti         2.1851999142        2.4438946084        1.4024553622
 Ti        -0.0560578214       -0.0134670853       -0.1215602525
  O         0.9398087876        3.6241693358        1.7372099818
  O         3.9156119540        0.8735140216        1.5356388848
  O         1.6773596869        1.3091079395        0.1533077453
  O         3.3495387241        3.2184943296        0.2131465335
