       6
 i =       43, time =       43.000, E =      -180.8202570901
 Ti         2.1492188528        2.4450760017        1.3955726339
 Ti        -0.1078915691        0.0172925872       -0.1542009075
  O         1.0267195303        3.5314691308        1.8985232527
  O         3.9832025992        0.8488916275        1.5347596600
  O         1.6729172293        1.2818546605        0.1350471834
  O         3.4432756003        3.2807489112        0.2361722773
