       6
 i =       41, time =       41.000, E =      -180.8150707161
 Ti         2.1506213510        2.4528877740        1.3985855049
 Ti        -0.0940662251        0.0043581830       -0.1501835238
  O         1.0226807503        3.5398669134        1.8660095781
  O         3.9588638991        0.8686010274        1.5382083853
  O         1.6679860936        1.2700199896        0.1386405098
  O         3.4352943223        3.2767582329        0.2301977086
