       6
 i =       35, time =       35.000, E =      -180.8215225343
 Ti         2.1725758276        2.4516211564        1.4028632083
 Ti        -0.0624637556       -0.0142239067       -0.1294369375
  O         0.9695717360        3.5961215388        1.7696120375
  O         3.9159501188        0.8855977464        1.5353379185
  O         1.6708034593        1.2860881189        0.1493087579
  O         3.3792626214        3.2390774822        0.2159878864
