       6
 i =        7, time =        7.000, E =      -180.7725173768
 Ti         2.3284320862        2.3292159909        1.4737408030
 Ti        -0.0167555117        0.0126874548       -0.0126596328
  O         0.8247777967        3.7867679439        1.4567996445
  O         3.8368107079        0.8301850830        1.5114722750
  O         1.5066422508        1.4618118879        0.0169475389
  O         3.1830166760        3.1830623824        0.0531697861
