       6
 i =       29, time =       29.000, E =      -180.8486434300
 Ti         2.2156236766        2.4211156954        1.3996736351
 Ti        -0.0492955761       -0.0038102110       -0.1065712376
  O         0.8696202794        3.6898078817        1.6719421532
  O         3.9372340568        0.8244002189        1.5434883125
  O         1.6964604816        1.3782844998        0.1601880020
  O         3.2743870874        3.1670631469        0.2106152891
