       6
 i =       31, time =       31.000, E =      -180.8427875274
 Ti         2.1997469087        2.4334558250        1.4012707017
 Ti        -0.0517636666       -0.0097502992       -0.1138787926
  O         0.9059850559        3.6558339826        1.7045219235
  O         3.9230433349        0.8525970139        1.5382982484
  O         1.6861809773        1.3403393918        0.1571546015
  O         3.3142575342        3.1941098320        0.2114509741
