       6
 i =       27, time =       27.000, E =      -180.8446797877
 Ti         2.2323829153        2.4076040853        1.3982615095
 Ti        -0.0481896663        0.0035001373       -0.0995218110
  O         0.8321924370        3.7255000728        1.6394543186
  O         3.9562597439        0.7907189007        1.5507512323
  O         1.7071071720        1.4210225859        0.1613816749
  O         3.2310887079        3.1384461578        0.2099159503
