      56
 i =        3, time =        3.000, E =      -152.8648725581
  C         0.6455464699        0.6526413334        7.4974958112
  C         1.7170023896        2.6790833615        7.4933604071
  C         5.3293181878        0.6565887301        7.4868530888
  C         4.2769599336        2.6641652968        7.5099377085
  C         7.7703904514        0.6542711685        7.5045121877
  C         6.5487079329        2.7434723421        7.5191300665
  C         8.8309471015        2.6734089818        7.5118149856
  C        12.4354158151        0.6507979182        7.4905195467
  C        11.3561249086        2.6972999256        7.4868027508
  C        13.6588768119        2.7805334688        7.4908829832
  C         2.9732760575        4.9059070775        7.4904641683
  C         1.7826442126        6.8282775333        7.5184073720
  C         0.6880886553        8.8547829317        7.4832580781
  C         4.1740141240        6.8305212532        7.5132659746
  C         2.9772425434        8.9448061504        7.5003596254
  C         5.2944252590        8.8599088507        7.5039795942
  C        10.0985641373        4.8639093777        7.5157107332
  C         8.8896861302        6.8370169234        7.5058846133
  C         7.8152961195        8.8496589875        7.4969606985
  C         6.5301626390       11.0630682414        7.5068203477
  C        11.3122901233        6.8313399737        7.5301025293
  C        10.0840973597        8.9211856310        7.4939752540
  C        12.4088855726        8.8518983044        7.4920706628
  C        13.6233705164       11.0478423403        7.5024873933
  N         5.3426653617       11.6794600872        7.4922469021
  N         6.5574682173        9.5967778013        7.5165900614
  N         7.7585943828        7.4962671125        7.5062475989
  N         8.9209185629        5.5026838575        7.5001434831
  N         7.7024463389       11.6662856170        7.5074973122
  N         8.9194574668        9.5661065608        7.4938176050
  N        10.0974925294        7.5446817240        7.5135326860
  N        11.2744966716        5.5100037227        7.5138611317
  N        11.2861418091        9.5808000253        7.5140689117
  N        12.4492582292        7.5053889412        7.4915590785
  N        13.6831837516        9.5932877698        7.4909479718
  N        12.4604344259       11.6562340833        7.5025409444
  N         0.5610508752        3.4098569422        7.4926134119
  N         1.7600989790        1.3714454299        7.5077557543
  N         2.9802794948        3.4133725260        7.4989151986
  N         5.3604348583        3.3984608554        7.5015741572
  N         7.7057383333        3.3996367850        7.4781366694
  N         8.8807043804        1.3344864990        7.4935936336
  N         6.5338055936        1.3548768598        7.4958756358
  N         4.1976990380        1.3410794992        7.4985156724
  N        10.0796858214        3.3955844980        7.4985839500
  N        11.3114550766        1.3434720335        7.4874235139
  N        12.5051338040        3.4033249127        7.4720089123
  N        13.6668083666        1.3793359066        7.5015043834
  N         5.3046710744        7.5142353998        7.4957146788
  N         4.1489801071        9.5610907592        7.5019446616
  N         0.6091992606       11.6685623241        7.4995674619
  N         1.8288988218        9.5532956262        7.5133403415
  N         2.9845324797        7.5546302500        7.5145163489
  N         4.1630124353        5.5045170839        7.5015707706
  N         1.7755511111        5.4988222247        7.4785966031
  N         0.6215901799        7.5037932174        7.4974229547
