      56
 i =        1, time =        1.000, E =      -152.8784179876
  C         0.6321696235        0.6605892519        7.5000051045
  C         1.7086193032        2.6795521027        7.4978236707
  C         5.3317853141        0.6620584936        7.4961191443
  C         4.2626207541        2.6753496784        7.5033113190
  C         7.7545272472        0.6610278364        7.5020095762
  C         6.5431050516        2.7503915995        7.5065830562
  C         8.8270494035        2.6778063330        7.5040651657
  C        12.4474904687        0.6600974421        7.4976116997
  C        11.3687941224        2.6869308565        7.4956518098
  C        13.6597336823        2.7634279772        7.4971118256
  C         2.9766857284        4.8956151466        7.4967881150
  C         1.7753207903        6.8303013332        7.5069204627
  C         0.6905417530        8.8500050974        7.4943172415
  C         4.1805889694        6.8316418350        7.5048012932
  C         2.9768824687        8.9295512040        7.4998163832
  C         5.2729827371        8.8526610118        7.5011355556
  C        10.0991449356        4.8808779376        7.5052815371
  C         8.8908775182        6.8333862691        7.5023187049
  C         7.8135371271        8.8479122581        7.4988097190
  C         6.5361916478       11.0589430879        7.5022558328
  C        11.3071926749        6.8318439089        7.5108037478
  C        10.0925174007        8.9209318849        7.4978585954
  C        12.3913215286        8.8497951695        7.4973714522
  C        13.6468383025       11.0540478580        7.5011074472
  N         5.3495846076       11.6727464651        7.4979114354
  N         6.5443464735        9.5884625401        7.5053088799
  N         7.7526712554        7.5075082520        7.5021373462
  N         8.9154749402        5.5018091856        7.4999024495
  N         7.7175900783       11.6677002147        7.5022217048
  N         8.9297168651        9.5674215936        7.4973652900
  N        10.0976852083        7.5337768650        7.5054991628
  N        11.2817032968        5.5049056973        7.5049200773
  N        11.2683782434        9.5736485195        7.5037101089
  N        12.4469083366        7.5120155776        7.4980288877
  N        13.6668612578        9.5874390273        7.4969851959
  N        12.4693646762       11.6651421351        7.5012946334
  N         0.5739930485        3.4043802646        7.4968305578
  N         1.7644540522        1.3555305530        7.5033163553
  N         2.9794761968        3.4159183059        7.4994930814
  N         5.3716419483        3.4010569198        7.5004041712
  N         7.7032703684        3.4007388378        7.4920868734
  N         8.8853183718        1.3424276802        7.4984939465
  N         6.5374967458        1.3589227932        7.4994983811
  N         4.1936433034        1.3456868657        7.4995281915
  N        10.0931506971        3.4097719726        7.4994197017
  N        11.3121094303        1.3465732749        7.4962172128
  N        12.5014765475        3.4026359724        7.4901868129
  N        13.6625877588        1.3678257308        7.5018471473
  N         5.3181298685        7.5150587568        7.4991989883
  N         4.1418645176        9.5668624203        7.4993080325
  N         0.6063405505       11.6689636972        7.5002372877
  N         1.8197685018        9.5633211831        7.5036305977
  N         2.9799004314        7.5375714135        7.5058438670
  N         4.1640326792        5.5030422533        7.4997868115
  N         1.7863397513        5.5005001579        7.4936514305
  N         0.6264614937        7.5104685712        7.4995539383
