      56
 i =      147, time =      147.000, E =      -152.8189486560
  C         0.6677561494        0.6553284976        7.4025054740
  C         1.7544732962        2.6659355845        7.1713121644
  C         5.3376715139        0.6670712727        7.4023523097
  C         4.2716862504        2.7132987973        7.1893356442
  C         7.7584758870        0.6465254351        7.7353255246
  C         6.5986035167        2.7843712566        7.3383509762
  C         8.8165169394        2.6334094285        7.5243928376
  C        12.4854225995        0.5993948081        7.1742479627
  C        11.3908015553        2.6261289042        7.2304978972
  C        13.6575258433        2.7380119614        6.9568932355
  C         2.9209277918        4.8797889605        7.2722102637
  C         1.7372336149        6.8661479648        7.2978916743
  C         0.6312586353        8.8319794721        7.6936411195
  C         4.0901026997        6.8489228627        7.6034279272
  C         2.9281755513        8.9094253468        7.8758318005
  C         5.2669601935        8.8552189515        7.8291989555
  C        10.1705481048        4.8281297260        7.6547720976
  C         8.8956990171        6.8600547706        7.8041650365
  C         7.8077075621        8.8633731633        7.7521503765
  C         6.5013198150       11.0227640082        7.6629068204
  C        11.2889441540        6.8735723990        7.7186353280
  C        10.1275452418        8.9716582153        7.6760964437
  C        12.4303134510        8.8855067038        7.6650010338
  C        13.6683665310       11.0340862203        7.4739803148
  N         5.3596046177       11.6828919869        7.4227144932
  N         6.5288602414        9.5775071724        7.7424812125
  N         7.7454192828        7.5297641897        7.8219672139
  N         8.9640403639        5.5456309574        7.7247155754
  N         7.6893704356       11.6690075221        7.8886444214
  N         8.9128367799        9.5534758317        7.6729167015
  N        10.1072607664        7.5821171730        7.7299804233
  N        11.2656177091        5.5728090450        7.7942853291
  N        11.2769419861        9.6083122888        7.5363553815
  N        12.4262581402        7.5504225561        7.7601054440
  N        13.6533803946        9.5733380212        7.6971926215
  N        12.4723696425       11.6515945428        7.2764441947
  N         0.5877972900        3.3838027179        6.8675172430
  N         1.7570595891        1.3058247325        7.4427764828
  N         2.9924526425        3.3955003338        7.1594371506
  N         5.4435882410        3.4155450611        7.2788235902
  N         7.7746542586        3.3630001618        7.3476445498
  N         8.9114937621        1.3250358343        7.7237226014
  N         6.5998913102        1.3751288270        7.4179413959
  N         4.2585454929        1.3544267680        7.1084560414
  N        10.1218640901        3.4039768814        7.4474590826
  N        11.2979983500        1.3365949831        7.1308340050
  N        12.5515156360        3.3808678413        7.0246455439
  N        13.6853491629        1.3181558578        7.1838212052
  N         5.2677651441        7.5136574846        7.7651662610
  N         4.0759077918        9.5529177265        7.9338652515
  N         0.5728345976       11.6531578707        7.6054437750
  N         1.7498959949        9.5381971153        7.8749356161
  N         2.8897794657        7.5347130091        7.6175938382
  N         4.0933787301        5.5664682328        7.4407046062
  N         1.7799300873        5.5278813512        7.1268295595
  N         0.6330584242        7.5306888854        7.3553006420
