      56
 i =      136, time =      136.000, E =      -152.8153562353
  C         0.6167463528        0.6280568328        7.4077048634
  C         1.6986395498        2.6674886729        7.1890953917
  C         5.3649616098        0.6725128254        7.3487432478
  C         4.2278507064        2.6895400084        7.2490777584
  C         7.8043171537        0.6487757746        7.6930555544
  C         6.5783002037        2.7846065462        7.3602402939
  C         8.9033318949        2.6651327638        7.5136682181
  C        12.4299912894        0.6636418592        7.1402841446
  C        11.3591314214        2.6419704706        7.2200259464
  C        13.7080471298        2.6900132793        6.9820213466
  C         2.9607345179        4.8964098422        7.2831929044
  C         1.7142709305        6.7898774609        7.3180179083
  C         0.6856388895        8.8144087092        7.6707751904
  C         4.1394234282        6.8924024899        7.5965226427
  C         2.9645592199        8.9031774992        7.8409665230
  C         5.2507616149        8.8816949770        7.8222633672
  C        10.1102777190        4.9070957374        7.5996289652
  C         8.9429452805        6.8884147152        7.7704451189
  C         7.8262998514        8.8520067253        7.7831983814
  C         6.5176959127       11.0438522289        7.6959670503
  C        11.3209670966        6.8843571328        7.7409769214
  C        10.1146983775        8.9685704825        7.6603902202
  C        12.3674614466        8.8800407937        7.6686854156
  C        13.6057919703       11.0446433626        7.4860483432
  N         5.3172122183       11.6425767707        7.3716973797
  N         6.5429777275        9.5726882269        7.7559542104
  N         7.7587880027        7.5400394990        7.7976103023
  N         8.9732031834        5.5497550497        7.7438344224
  N         7.6847458147       11.6574751387        7.8006740106
  N         8.9695456894        9.5937346319        7.6475706057
  N        10.1232938348        7.5724501703        7.7175171599
  N        11.3115942752        5.5226404162        7.7338168096
  N        11.2736488687        9.5891175476        7.4951796259
  N        12.4624411066        7.5675511964        7.8632590553
  N        13.6418766002        9.5938587437        7.6625665035
  N        12.4616927430       11.6329181086        7.2412212704
  N         0.6315162961        3.3089450635        6.8518163147
  N         1.8083854616        1.3998302236        7.4775909082
  N         2.9254926178        3.4343744627        7.2120808438
  N         5.3550138608        3.3923797899        7.2952151462
  N         7.7513800326        3.4761494421        7.4011230982
  N         8.9632760199        1.3262742351        7.7351667599
  N         6.6064834763        1.3450785846        7.4764251804
  N         4.2185880803        1.3744265864        7.1347042890
  N        10.1307008637        3.3914165748        7.4785878884
  N        11.2870293032        1.2566150539        7.1572688835
  N        12.4547174636        3.3271496498        7.0213106075
  N        13.6707521968        1.3140333254        7.1518235011
  N         5.3008619508        7.5581854247        7.7715674072
  N         4.1211923355        9.5657755228        7.9403890744
  N         0.5579731501       11.6749067689        7.6242006670
  N         1.7927066894        9.4956137583        7.8942489709
  N         2.9236330474        7.5421164535        7.5404138127
  N         4.0787633683        5.5258995839        7.5202031597
  N         1.7621119500        5.4756796119        7.1770807287
  N         0.5775696586        7.5339198894        7.2835919805
