      56
 i =      141, time =      141.000, E =      -152.8124033012
  C         0.6346112893        0.6236902831        7.4055893444
  C         1.7092285875        2.6640902301        7.1857722407
  C         5.3400267069        0.6679443478        7.3844367316
  C         4.2471763583        2.6910298621        7.2252330631
  C         7.8026679687        0.6421906350        7.7200413146
  C         6.6068713529        2.7991432360        7.3480877621
  C         8.8477797892        2.6250297397        7.5188055947
  C        12.4565632713        0.6390305763        7.1528790059
  C        11.3813622368        2.6062833827        7.2272157511
  C        13.7004837018        2.7114835951        6.9666173701
  C         2.9522232879        4.9125367074        7.2821060317
  C         1.7149943879        6.8123350515        7.3015374668
  C         0.6727502425        8.8102450123        7.6917174374
  C         4.1095356486        6.8607215526        7.5931514450
  C         2.9493620864        8.9206977306        7.8675539396
  C         5.2518849186        8.8705280201        7.8272990639
  C        10.1453598242        4.8611583949        7.6174357211
  C         8.9109117756        6.8973270243        7.7891597351
  C         7.8422661907        8.8459859450        7.7732567423
  C         6.5182594093       11.0390353530        7.6872964013
  C        11.3081963432        6.8830731971        7.7226608790
  C        10.1125633788        8.9845447679        7.6751707118
  C        12.3775830016        8.8811764123        7.6682145439
  C        13.6309389726       11.0691711557        7.4726647905
  N         5.3130886714       11.6606372124        7.3858698625
  N         6.5410392283        9.5634398704        7.7472381851
  N         7.7435901268        7.5326074321        7.8056442821
  N         8.9633767590        5.5543917985        7.7383776773
  N         7.6930794114       11.6670198146        7.8369249191
  N         8.9515356708        9.5733957926        7.6567557016
  N        10.1235585035        7.5659658442        7.7227615725
  N        11.2928549995        5.5637277637        7.7673625067
  N        11.2809041893        9.6049066174        7.5067557471
  N        12.4508415418        7.5530270723        7.8193973422
  N        13.6471247592        9.5792413627        7.6828689394
  N        12.4586099167       11.6315059314        7.2584169792
  N         0.6175013004        3.3499832731        6.8546558314
  N         1.8045048109        1.3613849444        7.4629800960
  N         2.9383187997        3.4117555687        7.1860301078
  N         5.3933685722        3.4105062843        7.2878737925
  N         7.7566770031        3.4475986908        7.3779166658
  N         8.9508882259        1.3161153500        7.7294617775
  N         6.6128702566        1.3527727217        7.4461686361
  N         4.2331505982        1.3626513632        7.1163878105
  N        10.1216262938        3.4026975412        7.4654433267
  N        11.2749694512        1.2859032720        7.1444073497
  N        12.4978581385        3.3687901426        7.0205896101
  N        13.6788145353        1.3075941997        7.1669255914
  N         5.3074599645        7.5420980088        7.7741964011
  N         4.0862799596        9.5633132434        7.9362399865
  N         0.5617956672       11.6641168306        7.6182961887
  N         1.7896423426        9.5069120007        7.8787662402
  N         2.8930984284        7.5471135158        7.5734208468
  N         4.0760323643        5.5489018379        7.4855138334
  N         1.7698514013        5.4920299504        7.1555544438
  N         0.6056317628        7.5302749171        7.3125654597
