      56
 i =      117, time =      117.000, E =      -152.8234021762
  C         0.5701619902        0.6780070394        7.4268623625
  C         1.6899739092        2.6940936411        7.1763384690
  C         5.3720265180        0.6879815801        7.2640106893
  C         4.2432908143        2.6698414732        7.2957606181
  C         7.7327680321        0.7191121980        7.6150602136
  C         6.5415918134        2.7223584933        7.4664685731
  C         8.8247811142        2.7294570811        7.5668518147
  C        12.4668408878        0.6334278349        7.1599784434
  C        11.3120710388        2.6375901529        7.2110317778
  C        13.6009281639        2.6601386849        6.9975629391
  C         2.9649729297        4.9009855421        7.3693721698
  C         1.7731174742        6.8739536964        7.3502575391
  C         0.6424176425        8.8764494393        7.5346034107
  C         4.1587904501        6.7890823854        7.6156874265
  C         2.9765057129        8.8910580301        7.7370425068
  C         5.2999108886        8.8730220667        7.7965907385
  C        10.1628946217        4.8475468040        7.6008866325
  C         8.9421962087        6.8669366702        7.7172344404
  C         7.7999063821        8.9166599418        7.7372004684
  C         6.5609820103       11.0516392284        7.6170591104
  C        11.3526309870        6.8216231597        7.8257640895
  C        10.0884410024        8.9037335599        7.5777477275
  C        12.4099538106        8.8768613295        7.6789666389
  C        13.6788701857       11.0613865862        7.4942759909
  N         5.4192431371       11.7089974716        7.3468290947
  N         6.5277062308        9.6245170928        7.8151347811
  N         7.8354482994        7.6042732283        7.7923478105
  N         8.9735254684        5.5068860606        7.7198522282
  N         7.6969235901       11.7258648484        7.7168959240
  N         8.9188375616        9.5767514234        7.6414865087
  N        10.1707730902        7.5057908067        7.6968033061
  N        11.3390115752        5.5233814510        7.6011958660
  N        11.2832625488        9.5347370306        7.4924678573
  N        12.4467845624        7.5703280594        7.9791959357
  N        13.6568548026        9.5813389116        7.5683161976
  N        12.5048038492       11.6264775503        7.1967778439
  N         0.5688683213        3.3000676000        6.8708629684
  N         1.6977777765        1.3757804198        7.5537194359
  N         3.0002275794        3.4004410884        7.2960743768
  N         5.3794838250        3.3693395964        7.3389195356
  N         7.6887891438        3.3282542167        7.4416115894
  N         8.8385182083        1.4434884816        7.6983831894
  N         6.5210229159        1.3815890133        7.5226618426
  N         4.2265877914        1.3393759619        7.2293439930
  N        10.1256014211        3.4862523747        7.4832043078
  N        11.2893670137        1.3555617757        7.1998744922
  N        12.4688198735        3.3168334347        7.0158271037
  N        13.6375503411        1.2840951996        7.1418407808
  N         5.3085290098        7.5460983515        7.7198138736
  N         4.1192891585        9.5291824922        7.9350831153
  N         0.5359871408       11.6921541884        7.6327759275
  N         1.7686051412        9.4556582451        7.9422930454
  N         2.9639862475        7.5156431049        7.4520734326
  N         4.1232094756        5.4714634635        7.6030499661
  N         1.7947971536        5.5201274958        7.2561547390
  N         0.6491227565        7.5663259850        7.2535254803
