      56
 i =      100, time =      100.000, E =      -152.8183860038
  C         0.5724449091        0.6509066428        7.4772374451
  C         1.7104671964        2.6645720293        7.2705131018
  C         5.2988272951        0.6267379179        7.3896970536
  C         4.1894399066        2.7043025982        7.3353888769
  C         7.7005523880        0.7241610868        7.6352804047
  C         6.5121247229        2.7720696149        7.4947528106
  C         8.7962796962        2.7512521289        7.5654872384
  C        12.3757337383        0.6245051090        7.1988824903
  C        11.3504150446        2.7236683918        7.2524894135
  C        13.6394235787        2.7422336161        6.9784123866
  C         2.9887049396        4.7856439128        7.4728199891
  C         1.8348884243        6.8533295383        7.2963946568
  C         0.6774339077        8.8547162271        7.5388271018
  C         4.2034339808        6.8158529145        7.5985190892
  C         2.9478921884        8.8706933205        7.7567609160
  C         5.2523193034        8.8222589154        7.7672224877
  C        10.1671780440        4.8932857614        7.5801392193
  C         8.9068409370        6.8264127120        7.7190963402
  C         7.8242374178        8.8926518010        7.7132950243
  C         6.5941195833       11.0766722036        7.5497871431
  C        11.3463796808        6.8471136088        7.7664486788
  C        10.1149986241        8.8867407983        7.6125531889
  C        12.4286018368        8.8605747054        7.6779916743
  C        13.6483375247       10.9819726914        7.3929827343
  N         5.4169175868       11.6394971164        7.2936753425
  N         6.5659403508        9.6147104819        7.7728386923
  N         7.7803115511        7.4830512901        7.7725626944
  N         8.9916428465        5.5000407469        7.6889797508
  N         7.7556210710       11.7217112488        7.6770409448
  N         8.9955079127        9.5586484920        7.5854380711
  N        10.1036510098        7.5260836553        7.6733688152
  N        11.3313424551        5.5128309943        7.6286362212
  N        11.2973727446        9.5042853280        7.4900364209
  N        12.4840014305        7.5226327636        7.9850586691
  N        13.6705656860        9.5906843242        7.5114619989
  N        12.5004610511       11.6128822716        7.2201793761
  N         0.5397965433        3.3833852374        6.9278254207
  N         1.6686446564        1.4002165544        7.5699714323
  N         2.9251974115        3.3913743762        7.3177745987
  N         5.3324654915        3.4000713952        7.3963419088
  N         7.6517440998        3.4794686657        7.4649224529
  N         8.8363242035        1.3982469774        7.6700179118
  N         6.4748998222        1.3782609225        7.4846922924
  N         4.1728254964        1.3492908221        7.2566756049
  N        10.0747746016        3.3722998827        7.4330842499
  N        11.2823042730        1.3416301981        7.2381524936
  N        12.4712823840        3.4173313223        7.0093228905
  N        13.6165486466        1.3739582167        7.1749460279
  N         5.3312514474        7.4841664300        7.6682732535
  N         4.1256484474        9.5149630834        7.8896703478
  N         0.6239468990       11.6767458918        7.6568206712
  N         1.8049327032        9.5503703800        7.8740444939
  N         3.0437872202        7.5575592124        7.4644060978
  N         4.1548835737        5.5034706641        7.6380625602
  N         1.8444952012        5.5525017078        7.3199326472
  N         0.6830703027        7.5667106028        7.2215101605
