      56
 i =       99, time =       99.000, E =      -152.8203734901
  C         0.5667989005        0.6504822475        7.4787863547
  C         1.7122344876        2.6726637562        7.2750347551
  C         5.2936012330        0.6225555559        7.3944070047
  C         4.1755089606        2.7079541506        7.3380282207
  C         7.7064027642        0.7212662651        7.6356162565
  C         6.5151183640        2.7784752607        7.4914171157
  C         8.7984793360        2.7526429906        7.5597751146
  C        12.3802266687        0.6299477213        7.2012643777
  C        11.3482404338        2.7203604467        7.2535695087
  C        13.6352106771        2.7459161399        6.9804071423
  C         2.9941984117        4.7829205300        7.4750172736
  C         1.8395824619        6.8512981018        7.2953737947
  C         0.6762249231        8.8548871309        7.5410226016
  C         4.2042055108        6.8137744759        7.5962342139
  C         2.9530084978        8.8696130685        7.7587480425
  C         5.2597723777        8.8245097564        7.7642662398
  C        10.1660834917        4.8899634448        7.5758956053
  C         8.9015436637        6.8297701535        7.7193284131
  C         7.8260923931        8.8891986305        7.7129481234
  C         6.5944889088       11.0678887823        7.5496527241
  C        11.3462781892        6.8453305784        7.7616805207
  C        10.1152462081        8.8841863921        7.6157376767
  C        12.4370448816        8.8660062049        7.6756255861
  C        13.6500680067       10.9810065017        7.3915280707
  N         5.4161945034       11.6348013772        7.2926041413
  N         6.5690101422        9.6124097688        7.7649887415
  N         7.7805480394        7.4778144577        7.7706568752
  N         8.9913619457        5.4994492863        7.6881446314
  N         7.7509242272       11.7127514063        7.6755433123
  N         8.9885205131        9.5563799331        7.5825056996
  N        10.1044734443        7.5276350081        7.6731231463
  N        11.3267342822        5.5117320314        7.6347955598
  N        11.3060370280        9.5013471278        7.4904218205
  N        12.4805480177        7.5213479561        7.9802313016
  N        13.6670746083        9.5863579196        7.5097562041
  N        12.5015930622       11.6091804773        7.2222222354
  N         0.5439072622        3.3855939704        6.9325414841
  N         1.6715815283        1.3995832304        7.5714530901
  N         2.9259999477        3.3957295923        7.3204172128
  N         5.3207699572        3.3997748439        7.4002058846
  N         7.6558031780        3.4814357682        7.4694199044
  N         8.8373544603        1.4045476826        7.6695319692
  N         6.4718926204        1.3827291679        7.4845837606
  N         4.1721044039        1.3514072935        7.2586485466
  N        10.0777569308        3.3726632023        7.4312928549
  N        11.2799909918        1.3495078506        7.2407728541
  N        12.4692487765        3.4156230831        7.0096270781
  N        13.6181532823        1.3794477869        7.1779897796
  N         5.3313913814        7.4878051576        7.6669190334
  N         4.1322785610        9.5154600683        7.8876840052
  N         0.6190403395       11.6740755131        7.6541205746
  N         1.8056116467        9.5576547926        7.8681170216
  N         3.0446777141        7.5579614192        7.4667765173
  N         4.1515774680        5.5040218626        7.6390777293
  N         1.8443274198        5.5473519267        7.3224481517
  N         0.6831649471        7.5652515860        7.2187730234
