      56
 i =      148, time =      148.000, E =      -152.8192186669
  C         0.6683252870        0.6603833869        7.4017375299
  C         1.7590398607        2.6677049830        7.1670430695
  C         5.3423758440        0.6686949245        7.4021605075
  C         4.2772274032        2.7171014365        7.1833276717
  C         7.7482050803        0.6486492802        7.7355944038
  C         6.5933558221        2.7768324004        7.3369901955
  C         8.8198153144        2.6379353041        7.5249655049
  C        12.4885000015        0.5975356136        7.1775515905
  C        11.3905784322        2.6368973573        7.2302536790
  C        13.6517603608        2.7399898818        6.9571780578
  C         2.9169873265        4.8726535623        7.2694393192
  C         1.7440550904        6.8745962570        7.2994817137
  C         0.6251844309        8.8382589417        7.6920644925
  C         4.0893503834        6.8516109159        7.6065657830
  C         2.9243233093        8.9053983542        7.8747437394
  C         5.2684847059        8.8519222738        7.8288976392
  C        10.1690528938        4.8272180273        7.6616246299
  C         8.8964801547        6.8514016258        7.8054746045
  C         7.7972557365        8.8658201062        7.7486487984
  C         6.4998745537       11.0203132709        7.6594170222
  C        11.2842235662        6.8736762717        7.7197430564
  C        10.1290494166        8.9666111805        7.6747669710
  C        12.4377615869        8.8857837702        7.6638579430
  C        13.6741447376       11.0237295613        7.4761737944
  N         5.3699846043       11.6848171984        7.4299953271
  N         6.5251967263        9.5815328467        7.7421137264
  N         7.7466961139        7.5302165273        7.8250758018
  N         8.9660340670        5.5408315201        7.7220763377
  N         7.6860609999       11.6679040474        7.8970359232
  N         8.9080309625        9.5519805276        7.6755183122
  N        10.1032336872        7.5861139041        7.7312498915
  N        11.2627705694        5.5679746063        7.7972887876
  N        11.2765957116        9.6068633120        7.5428503613
  N        12.4231389069        7.5521845211        7.7502346118
  N        13.6544262781        9.5740859963        7.6981231707
  N        12.4768823108       11.6540832828        7.2793613255
  N         0.5876202785        3.3848984527        6.8713153851
  N         1.7506051041        1.3010241199        7.4389361785
  N         3.0028267061        3.3944799776        7.1557517352
  N         5.4488438656        3.4151570578        7.2770155830
  N         7.7769456100        3.3495041380        7.3423859577
  N         8.9034469110        1.3277139256        7.7235622886
  N         6.5952125172        1.3782846362        7.4150489471
  N         4.2615574276        1.3561171869        7.1086275191
  N        10.1238699301        3.4027146435        7.4447830986
  N        11.3062924384        1.3435540592        7.1292306630
  N        12.5556453012        3.3801746453        7.0260233207
  N        13.6858097732        1.3211798159        7.1861177457
  N         5.2581312642        7.5102501112        7.7627056327
  N         4.0781763137        9.5501827074        7.9337439824
  N         0.5751651567       11.6519729395        7.6026828080
  N         1.7409135001        9.5434370115        7.8757126466
  N         2.8927505308        7.5323153882        7.6250598820
  N         4.0957325855        5.5643857213        7.4329899081
  N         1.7817886855        5.5336638707        7.1220118102
  N         0.6337311640        7.5322877818        7.3624566972
