      56
 i =      103, time =      103.000, E =      -152.8159485664
  C         0.5838800631        0.6536649128        7.4708489454
  C         1.6943503454        2.6479418198        7.2537276468
  C         5.3150322076        0.6450476533        7.3716524941
  C         4.2324385566        2.6881007707        7.3278814586
  C         7.6849030997        0.7308899227        7.6325600293
  C         6.5011361404        2.7541462641        7.5015896133
  C         8.7921268400        2.7447663176        7.5795725207
  C        12.3720402464        0.6129575196        7.1919840791
  C        11.3550993305        2.7273823506        7.2473476759
  C        13.6495688428        2.7292732346        6.9754360063
  C         2.9717686814        4.8083116942        7.4632621348
  C         1.8217055292        6.8627434996        7.3020564873
  C         0.6832853328        8.8572128056        7.5330730652
  C         4.1980850517        6.8219934174        7.6050072621
  C         2.9377740389        8.8804250431        7.7514046953
  C         5.2363661093        8.8196437705        7.7750273447
  C        10.1655425455        4.8968846753        7.5916320637
  C         8.9252380794        6.8170930186        7.7179569601
  C         7.8172977329        8.8964137970        7.7145251335
  C         6.5930042033       11.0956445034        7.5526040388
  C        11.3457778304        6.8515927671        7.7813667187
  C        10.1177548823        8.8935520188        7.6023950755
  C        12.4061321773        8.8421046448        7.6846111007
  C        13.6497790622       10.9931317219        7.4021604560
  N         5.4174945769       11.6547298898        7.2988580257
  N         6.5577490395        9.6189647136        7.7928616754
  N         7.7790615312        7.5091947788        7.7780451329
  N         8.9924301195        5.5004532576        7.6916372225
  N         7.7642753926       11.7470125974        7.6822654114
  N         9.0068401529        9.5651759387        7.5951668053
  N        10.1067421410        7.5195178601        7.6748393967
  N        11.3449046021        5.5170791543        7.6123106907
  N        11.2731950081        9.5131799074        7.4892638490
  N        12.4906348969        7.5299382983        7.9951431008
  N        13.6793716056        9.5984993650        7.5176270349
  N        12.4969724607       11.6247308613        7.2138760442
  N         0.5366844255        3.3739127092        6.9156444079
  N         1.6649554820        1.4009960650        7.5666871079
  N         2.9285127239        3.3804404189        7.3117092358
  N         5.3643832502        3.3997961644        7.3854014508
  N         7.6420971932        3.4658447917        7.4531574987
  N         8.8312343751        1.3860975960        7.6718716076
  N         6.4880099019        1.3654980230        7.4876268737
  N         4.1751976864        1.3436165337        7.2517637328
  N        10.0703233136        3.3813927879        7.4396117647
  N        11.2891280725        1.3218619790        7.2306187446
  N        12.4725342958        3.4184297463        7.0090610069
  N        13.6117734734        1.3507299999        7.1672384956
  N         5.3330437868        7.4788623869        7.6735290295
  N         4.1090107873        9.5133855754        7.8962092356
  N         0.6283120047       11.6845239792        7.6608009972
  N         1.8003242312        9.5232959608        7.8894473605
  N         3.0334465548        7.5516373992        7.4573448647
  N         4.1601520780        5.4938827226        7.6339290222
  N         1.8462602182        5.5593725801        7.3117954995
  N         0.6836757971        7.5710864382        7.2300688656
