      56
 i =      124, time =      124.000, E =      -152.8235183050
  C         0.6118048498        0.6885324473        7.4181130104
  C         1.7680835853        2.6874771807        7.1851315835
  C         5.3872572869        0.6708863824        7.2586788077
  C         4.1827280073        2.7082818302        7.2830172292
  C         7.7630817435        0.6896765658        7.6256495814
  C         6.5342800066        2.7409970923        7.4219935374
  C         8.8970948862        2.7611142017        7.5340093914
  C        12.4573795156        0.6237025166        7.1450830682
  C        11.2874255508        2.6590232170        7.2074751036
  C        13.6132520470        2.6603965857        7.0039133409
  C         2.9569149537        4.8422637441        7.3153953390
  C         1.7344006081        6.8303821360        7.3548750740
  C         0.6240900556        8.8536548782        7.5692714791
  C         4.1691451703        6.8314232930        7.6119839461
  C         2.9814789382        8.8656547163        7.7550821475
  C         5.3189110112        8.9017744889        7.8048906847
  C        10.1519203374        4.8989973315        7.5932962946
  C         8.9502514832        6.8679964730        7.7282570145
  C         7.7807686524        8.9358595443        7.7610063917
  C         6.5051464941       11.0277553038        7.6549355370
  C        11.3592057660        6.8247874539        7.8104753296
  C        10.0977285300        8.9166279217        7.5978419882
  C        12.4388621054        8.9087110009        7.6698867776
  C        13.6219144803       11.0002363775        7.5145872942
  N         5.4122886462       11.6775504843        7.3655147010
  N         6.5286409919        9.6184992916        7.7949449153
  N         7.8448157420        7.5625406655        7.7931561310
  N         8.9668215035        5.5341037848        7.7361454906
  N         7.6756716596       11.6767963661        7.7402777696
  N         8.9233277350        9.5895573947        7.6464649366
  N        10.1489541366        7.5500474182        7.7060479191
  N        11.3138675713        5.4890006525        7.6360826086
  N        11.2739157439        9.5438055089        7.4919087667
  N        12.4361103025        7.5777464426        7.9484826657
  N        13.6352231271        9.5964854495        7.6014226097
  N        12.4971069635       11.6487423765        7.2028172940
  N         0.5524797087        3.2789896319        6.8512282633
  N         1.7107626634        1.3787621551        7.5268516330
  N         2.9918157535        3.4411724179        7.2751556358
  N         5.3558215776        3.3532079531        7.3210500054
  N         7.7354317033        3.3599607958        7.4391711593
  N         8.8963168285        1.4167772675        7.7213919088
  N         6.5463009590        1.3816081320        7.5263640546
  N         4.2363154777        1.3515595405        7.2017437542
  N        10.1473472526        3.4381115411        7.4917913925
  N        11.2952231053        1.3313816162        7.1862405430
  N        12.4691126642        3.2597564265        7.0195503009
  N        13.6555878387        1.3274125113        7.1327801016
  N         5.2689648946        7.5611678423        7.7419361013
  N         4.1529293169        9.5498659661        7.9463956580
  N         0.5410223102       11.6959520892        7.6273404282
  N         1.7785016882        9.4822144976        7.9456269744
  N         2.9823959614        7.5175961693        7.4757411284
  N         4.1208898132        5.5114254020        7.5868413187
  N         1.7581146276        5.5042087978        7.2267044104
  N         0.6039973140        7.5496942285        7.2538842939
