      56
 i =      116, time =      116.000, E =      -152.8216430019
  C         0.5664363238        0.6748570261        7.4289634729
  C         1.6765402131        2.6926739267        7.1770246531
  C         5.3693021314        0.6906684644        7.2689103912
  C         4.2541855194        2.6638161420        7.2977239524
  C         7.7264965895        0.7225975054        7.6152197559
  C         6.5389324758        2.7211167846        7.4720497469
  C         8.8181016661        2.7249530278        7.5714082025
  C        12.4634119755        0.6338663863        7.1622437932
  C        11.3180291234        2.6420688070        7.2126657465
  C        13.6052373914        2.6619841206        6.9957237099
  C         2.9639390854        4.9066038808        7.3776851205
  C         1.7787399217        6.8788391429        7.3478726933
  C         0.6493228099        8.8781389674        7.5323103223
  C         4.1590601464        6.7902282965        7.6160158991
  C         2.9742559369        8.8951535375        7.7366751188
  C         5.2921217462        8.8673124386        7.7955126581
  C        10.1616042561        4.8457010037        7.6021356499
  C         8.9434036937        6.8629027059        7.7164531982
  C         7.8013665520        8.9100072868        7.7344398382
  C         6.5682885577       11.0577462769        7.6112151486
  C        11.3506201610        6.8244770142        7.8255664059
  C        10.0910735765        8.9023385651        7.5768244193
  C        12.4037282453        8.8685228224        7.6809096079
  C        13.6841299312       11.0661587273        7.4888975733
  N         5.4182854926       11.7097397690        7.3432572250
  N         6.5291762031        9.6243929156        7.8169755561
  N         7.8298066376        7.6086486879        7.7919729428
  N         8.9758441467        5.5036772423        7.7171724492
  N         7.7027180212       11.7336958312        7.7139185663
  N         8.9239484162        9.5765399934        7.6395050372
  N        10.1701987006        7.5021233897        7.6950658312
  N        11.3434200547        5.5267824140        7.5980989566
  N        11.2811028971        9.5342400462        7.4922497759
  N        12.4510545190        7.5691480993        7.9825615991
  N        13.6607929107        9.5812810768        7.5638184331
  N        12.5040121870       11.6254053305        7.1967650259
  N         0.5727287922        3.3041183113        6.8745381853
  N         1.6972851312        1.3775565889        7.5563978748
  N         2.9971184636        3.3952540472        7.2979235232
  N         5.3831047468        3.3728936369        7.3417862412
  N         7.6804467888        3.3325972745        7.4411061731
  N         8.8327516365        1.4413785984        7.6953060414
  N         6.5196712380        1.3785152875        7.5206560004
  N         4.2225348018        1.3388456012        7.2320551134
  N        10.1204825410        3.4862869921        7.4807426779
  N        11.2893335871        1.3518907631        7.2018313290
  N        12.4666160249        3.3281331925        7.0152562752
  N        13.6337093926        1.2796882944        7.1436271873
  N         5.3144005972        7.5411273238        7.7162331741
  N         4.1141879765        9.5262392217        7.9325264179
  N         0.5394576355       11.6918312270        7.6345633507
  N         1.7677339908        9.4531676345        7.9395083444
  N         2.9627590153        7.5159525056        7.4499078297
  N         4.1243929851        5.4656487074        7.6050135587
  N         1.8021720446        5.5219783076        7.2606242343
  N         0.6546672089        7.5684814126        7.2532854708
