      56
 i =      140, time =      140.000, E =      -152.8110320430
  C         0.6290797906        0.6217325544        7.4059744323
  C         1.7030290885        2.6648489876        7.1866545077
  C         5.3443499645        0.6690437109        7.3785640941
  C         4.2438380737        2.6890373776        7.2305598737
  C         7.8054808340        0.6428645759        7.7154470347
  C         6.6031624848        2.7973323330        7.3500932792
  C         8.8583996862        2.6295457862        7.5176243957
  C        12.4506463654        0.6462779847        7.1497359104
  C        11.3780478899        2.6108792412        7.2259925342
  C        13.7049768343        2.7067064206        6.9695124325
  C         2.9559446655        4.9131371888        7.2826796209
  C         1.7141694124        6.8055041194        7.3041323499
  C         0.6779374432        8.8097998204        7.6890839989
  C         4.1149204253        6.8669807196        7.5931056287
  C         2.9525427349        8.9190060363        7.8635571660
  C         5.2500726864        8.8725474565        7.8264803905
  C        10.1377111016        4.8701862254        7.6127750342
  C         8.9167460087        6.8984280039        7.7857197096
  C         7.8419418288        8.8447394372        7.7760643216
  C         6.5199619893       11.0410171094        7.6903767525
  C        11.3104595707        6.8847584182        7.7252371055
  C        10.1115506721        8.9830609574        7.6732437510
  C        12.3717758031        8.8804056571        7.6683640900
  C        13.6250504924       11.0680660163        7.4744527889
  N         5.3103803619       11.6562334545        7.3817498715
  N         6.5418326113        9.5637808314        7.7485742496
  N         7.7450135023        7.5340605169        7.8035999557
  N         8.9650220692        5.5536757364        7.7399603747
  N         7.6917224896       11.6652744683        7.8290018552
  N         8.9571828913        9.5777360990        7.6544517222
  N        10.1243104586        7.5659934127        7.7216640090
  N        11.2975532524        5.5566669545        7.7614488605
  N        11.2804961477        9.6024886032        7.5035828383
  N        12.4544891222        7.5555207818        7.8286439738
  N        13.6461296466        9.5817102417        7.6792986894
  N        12.4583776506       11.6298991558        7.2551949140
  N         0.6232862511        3.3415391995        6.8538960461
  N         1.8089829319        1.3710501092        7.4659079061
  N         2.9328848328        3.4158645798        7.1910149631
  N         5.3843605404        3.4078561469        7.2892542783
  N         7.7548651411        3.4577882748        7.3827363220
  N         8.9551495752        1.3166328730        7.7307650319
  N         6.6127274473        1.3499600055        7.4520421330
  N         4.2290872372        1.3655791323        7.1192268182
  N        10.1230825587        3.4008057637        7.4683348567
  N        11.2758042498        1.2778361969        7.1469633203
  N        12.4877450175        3.3625277980        7.0205339517
  N        13.6773065657        1.3076320372        7.1638787792
  N         5.3090963766        7.5464764389        7.7744404748
  N         4.0920841873        9.5642387227        7.9369359206
  N         0.5607388061       11.6662967591        7.6197916346
  N         1.7921891579        9.5032873301        7.8809610641
  N         2.8974708453        7.5473900660        7.5665019409
  N         4.0746268822        5.5433889174        7.4925413344
  N         1.7683227948        5.4872333755        7.1600318861
  N         0.5991697339        7.5309895016        7.3061023489
