      56
 i =      126, time =      126.000, E =      -152.8226369301
  C         0.6187523907        0.6839330607        7.4162238654
  C         1.7709630817        2.6826115079        7.1883381148
  C         5.3893690851        0.6695641960        7.2669679935
  C         4.1797410792        2.7116160421        7.2791652116
  C         7.7693621822        0.6813415971        7.6331625125
  C         6.5318263227        2.7478362611        7.4092205432
  C         8.9179999853        2.7602904362        7.5265317407
  C        12.4482409196        0.6271812598        7.1416276389
  C        11.2909342781        2.6710872942        7.2084152729
  C        13.6303904546        2.6627906556        7.0032023012
  C         2.9538520788        4.8338422341        7.3040035000
  C         1.7270932755        6.8184967148        7.3521447428
  C         0.6315248608        8.8459071426        7.5850948930
  C         4.1722989077        6.8544956593        7.6104925891
  C         2.9810592124        8.8641102218        7.7659217433
  C         5.3103168719        8.9035234318        7.8076719295
  C        10.1397190205        4.9150533329        7.5921953999
  C         8.9566219032        6.8637416957        7.7333268944
  C         7.7784391264        8.9276674298        7.7679773381
  C         6.4965969713       11.0281240240        7.6647709984
  C        11.3562146845        6.8336672510        7.8009813680
  C        10.1060795265        8.9217993355        7.6072760344
  C        12.4342518032        8.9067948967        7.6690840039
  C        13.6096315221       10.9889308544        7.5147424684
  N         5.4015333071       11.6651255855        7.3679392158
  N         6.5319610169        9.6134871857        7.7879548830
  N         7.8349146036        7.5546887609        7.7931870862
  N         8.9689642630        5.5400067846        7.7393200800
  N         7.6747498338       11.6671796893        7.7480233066
  N         8.9336959023        9.5951523120        7.6459174731
  N        10.1397567994        7.5627786491        7.7079392126
  N        11.3121129214        5.4826465767        7.6500494550
  N        11.2680105146        9.5490699072        7.4914437647
  N        12.4398897839        7.5794119579        7.9372166790
  N        13.6332231481        9.6023102797        7.6112621523
  N        12.4908964774       11.6534267187        7.2068263147
  N         0.5597987498        3.2765088677        6.8487638178
  N         1.7237722825        1.3858783229        7.5178879397
  N         2.9803017481        3.4499617538        7.2665754912
  N         5.3498823016        3.3540731670        7.3163408069
  N         7.7418025694        3.3840215646        7.4357500886
  N         8.9141164126        1.4003039790        7.7269073768
  N         6.5575504535        1.3750202396        7.5230398909
  N         4.2330766526        1.3575453919        7.1912831416
  N        10.1479357335        3.4195560999        7.4917298712
  N        11.2976363599        1.3125596327        7.1820627696
  N        12.4614855819        3.2567373370        7.0204959750
  N        13.6578288677        1.3341255612        7.1325989280
  N         5.2638640477        7.5611453928        7.7474795857
  N         4.1578324484        9.5545321301        7.9471514198
  N         0.5454697972       11.6945471210        7.6271488895
  N         1.7805744732        9.4881353254        7.9405206533
  N         2.9827795686        7.5192474745        7.4845446518
  N         4.1176414266        5.5164744648        7.5796558526
  N         1.7542702562        5.4973993343        7.2186990390
  N         0.5917556971        7.5456170471        7.2550256951
