      56
 i =      115, time =      115.000, E =      -152.8202182063
  C         0.5640931968        0.6717163299        7.4314109617
  C         1.6644272804        2.6903139678        7.1786359938
  C         5.3664053660        0.6928928239        7.2747668809
  C         4.2644472179        2.6584785032        7.2997792293
  C         7.7197086858        0.7257529227        7.6157001948
  C         6.5349763179        2.7203700042        7.4773485349
  C         8.8123878363        2.7214011420        7.5757118538
  C        12.4584526931        0.6333930021        7.1645469605
  C        11.3241050927        2.6484614545        7.2146110400
  C        13.6105138763        2.6645849634        6.9936995067
  C         2.9622362079        4.9102696942        7.3859950021
  C         1.7839884670        6.8829754819        7.3450646499
  C         0.6566016180        8.8792285867        7.5305368836
  C         4.1599552558        6.7928135741        7.6162459336
  C         2.9713929635        8.8988608038        7.7367225087
  C         5.2836752239        8.8615190638        7.7944141271
  C        10.1601062880        4.8458386099        7.6033200322
  C         8.9449090072        6.8579509075        7.7158494117
  C         7.8023802142        8.9034282615        7.7318529950
  C         6.5747717593       11.0642070158        7.6052502113
  C        11.3486809711        6.8278890150        7.8247880693
  C        10.0945585653        8.9011250705        7.5764094381
  C        12.3978722913        8.8598701505        7.6828991966
  C        13.6876300008       11.0687924020        7.4828466501
  N         5.4172767327       11.7093414266        7.3395142428
  N         6.5309539544        9.6241435290        7.8184408324
  N         7.8236430723        7.6114899035        7.7915014324
  N         8.9783020679        5.5009199404        7.7144623491
  N         7.7091798248       11.7413976390        7.7109882692
  N         8.9304731247        9.5765949618        7.6371549119
  N        10.1683573775        7.4994312063        7.6932234045
  N        11.3476207628        5.5293691950        7.5954971348
  N        11.2780238340        9.5337658846        7.4919553082
  N        12.4557692159        7.5677943410        7.9857065748
  N        13.6647045207        9.5818138148        7.5593571973
  N        12.5029068713       11.6251544547        7.1969608179
  N         0.5757419088        3.3085597853        6.8782524060
  N         1.6964090586        1.3796396197        7.5587085478
  N         2.9930717633        3.3904270558        7.2995366681
  N         5.3866966878        3.3764745837        7.3447935636
  N         7.6723012234        3.3391520542        7.4405355492
  N         8.8278867076        1.4376900445        7.6923632462
  N         6.5187402375        1.3749233831        7.5183715083
  N         4.2179898316        1.3385024082        7.2345062639
  N        10.1150150989        3.4840204006        7.4779611289
  N        11.2895446956        1.3468857435        7.2038396630
  N        12.4645222039        3.3395646181        7.0146684390
  N        13.6297485998        1.2766851366        7.1454423117
  N         5.3198767782        7.5354385605        7.7125258950
  N         4.1093892501        9.5234359466        7.9297791700
  N         0.5445373697       11.6918273885        7.6366818598
  N         1.7673613083        9.4515425880        7.9363068057
  N         2.9626903056        7.5165900866        7.4481161145
  N         4.1262386288        5.4607043128        7.6070743089
  N         1.8097019210        5.5240267979        7.2651894853
  N         0.6598590903        7.5704666441        7.2528650324
