      56
 i =      118, time =      118.000, E =      -152.8251181927
  C         0.5751831310        0.6810984658        7.4250367260
  C         1.7043434581        2.6947229660        7.1764246271
  C         5.3746647828        0.6849825469        7.2600136974
  C         4.2319530126        2.6763999951        7.2938332044
  C         7.7385949391        0.7152639961        7.6152558964
  C         6.5429854702        2.7240842092        7.4605094156
  C         8.8326657210        2.7347540022        7.5620219847
  C        12.4688514139        0.6321949697        7.1576978460
  C        11.3062724582        2.6351855727        7.2096765665
  C        13.5977644988        2.6589363517        6.9992314721
  C         2.9652923654        4.8936295894        7.3609161758
  C         1.7671258512        6.8683544522        7.3522572831
  C         0.6360500101        8.8741802936        7.5375383398
  C         4.1591151818        6.7896268508        7.6152758712
  C         2.9782448388        8.8866562815        7.7378902252
  C         5.3069386437        8.8786638086        7.7976904360
  C        10.1638206658        4.8513872041        7.5995940009
  C         8.9414203700        6.8700217813        7.7182196336
  C         7.7979058858        8.9230771559        7.7402064250
  C         6.5528431665       11.0459075606        7.6228947008
  C        11.3546370332        6.8194063892        7.8253712312
  C        10.0867538205        8.9053019572        7.5792036233
  C        12.4164112040        8.8847651780        7.6770882933
  C        13.6719834457       11.0546142461        7.4990962413
  N         5.4200412969       11.7070921659        7.3502870212
  N         6.5265697307        9.6244778944        7.8129178969
  N         7.8404675821        7.5986779655        7.7926401686
  N         8.9713786204        5.5105398969        7.7225366700
  N         7.6917380425       11.7178902559        7.7199970900
  N         8.9151552451        9.5773398839        7.6431427657
  N        10.1701364534        7.5104718092        7.6984641067
  N        11.3344367630        5.5191665311        7.6048411537
  N        11.2844478794        9.5353439516        7.4926054291
  N        12.4429882994        7.5714326385        7.9755292474
  N        13.6528836582        9.5820146701        7.5729524324
  N        12.5052130600       11.6283922707        7.1969969383
  N         0.5645118263        3.2962424678        6.8672234027
  N         1.6981029285        1.3743582313        7.5506283531
  N         3.0023771275        3.4060551737        7.2939256578
  N         5.3758265007        3.3658338864        7.3361156641
  N         7.6972639862        3.3261665618        7.4419977962
  N         8.8452515113        1.4439767400        7.7016453503
  N         6.5229287340        1.3840588077        7.5243988557
  N         4.2301361643        1.3401623621        7.2262901968
  N        10.1304077574        3.4839548819        7.4853872507
  N        11.2896473699        1.3576310957        7.1979127210
  N        12.4709454790        3.3056446815        7.0163950559
  N        13.6412475429        1.2897320827        7.1400688057
  N         5.3022679964        7.5504008295        7.7233424390
  N         4.1246768625        9.5322789615        7.9374813228
  N         0.5339740684       11.6927671579        7.6312730884
  N         1.7698566022        9.4588847310        7.9446466787
  N         2.9661687489        7.5155767224        7.4546376936
  N         4.1225584653        5.4779663825        7.6010924074
  N         1.7876034060        5.5183202508        7.2516865741
  N         0.6431345811        7.5639936393        7.2536290582
