      56
 i =      104, time =      104.000, E =      -152.8164392393
  C         0.5852438207        0.6546646292        7.4680935910
  C         1.6861946155        2.6457197544        7.2469293236
  C         5.3204579535        0.6524848817        7.3643321328
  C         4.2459849810        2.6815585509        7.3254190753
  C         7.6811434555        0.7325137789        7.6311810444
  C         6.4980869466        2.7487230411        7.5027305272
  C         8.7915190521        2.7417358914        7.5831350192
  C        12.3743496791        0.6110371539        7.1896991385
  C        11.3559521224        2.7261457279        7.2450122629
  C        13.6514113730        2.7240658942        6.9753964824
  C         2.9665404235        4.8198388577        7.4590087139
  C         1.8178969921        6.8668552907        7.3048051987
  C         0.6854532271        8.8591031351        7.5315430423
  C         4.1952168035        6.8233363874        7.6069815457
  C         2.9364970246        8.8850125988        7.7497773841
  C         5.2334186515        8.8201654505        7.7773390775
  C        10.1638421179        4.8957246363        7.5949268827
  C         8.9311929339        6.8152644583        7.7174876034
  C         7.8148466646        8.8956670616        7.7151107941
  C         6.5929175628       11.0993019322        7.5545432454
  C        11.3453377473        6.8524938581        7.7864576789
  C        10.1191397208        8.8952217373        7.5989189900
  C        12.3998590428        8.8362665478        7.6864914088
  C        13.6523954068       10.9996172279        7.4068375641
  N         5.4172147832       11.6602299052        7.3012271176
  N         6.5552944442        9.6197605474        7.7984005290
  N         7.7791557224        7.5208541924        7.7797591997
  N         8.9925996194        5.5000401742        7.6926905558
  N         7.7649083799       11.7541672625        7.6842343426
  N         9.0069059515        9.5673266482        7.5987434950
  N        10.1098479678        7.5167420580        7.6756360326
  N        11.3490013563        5.5188812231        7.6076452385
  N        11.2667472142        9.5160372777        7.4891532451
  N        12.4913660455        7.5334004891        7.9971274507
  N        13.6813661662        9.5992716001        7.5201024018
  N        12.4960254271       11.6280758296        7.2117554769
  N         0.5388332367        3.3697400645        6.9121254200
  N         1.6656813744        1.4006593607        7.5660327674
  N         2.9316438790        3.3776901603        7.3102281794
  N         5.3733388781        3.3992659198        7.3818543608
  N         7.6399206561        3.4585057011        7.4499063122
  N         8.8290134478        1.3847949857        7.6726936870
  N         6.4930746059        1.3619255724        7.4894081239
  N         4.1764607574        1.3421221483        7.2503939416
  N        10.0704868194        3.3877322835        7.4422306325
  N        11.2909221744        1.3172414986        7.2281680939
  N        12.4715129075        3.4171635961        7.0091978614
  N        13.6105575269        1.3412204575        7.1650358951
  N         5.3341807371        7.4792624130        7.6757736740
  N         4.1046798516        9.5129022899        7.8986261168
  N         0.6263068599       11.6868736923        7.6607909720
  N         1.7977149977        9.5131362967        7.8939676389
  N         3.0275553597        7.5483909511        7.4550582470
  N         4.1600986269        5.4885254004        7.6321527260
  N         1.8469120654        5.5588207577        7.3087985758
  N         0.6838525560        7.5724324683        7.2329457826
