      56
 i =      133, time =      133.000, E =      -152.8236304593
  C         0.6169123053        0.6442251666        7.4096275300
  C         1.7187052836        2.6689974042        7.1910268800
  C         5.3788823150        0.6726746756        7.3217398960
  C         4.2110908992        2.6972808831        7.2604647499
  C         7.7949247804        0.6562324164        7.6735381523
  C         6.5560830325        2.7731183696        7.3711890918
  C         8.9301628594        2.7025264081        7.5130657760
  C        12.4239784365        0.6606029380        7.1369372911
  C        11.3381465599        2.6666106764        7.2154134499
  C        13.6947647478        2.6795051950        6.9909569688
  C         2.9568710319        4.8694204955        7.2841241219
  C         1.7156946810        6.7900096800        7.3302169304
  C         0.6762919890        8.8218725982        7.6488013994
  C         4.1575053821        6.9014360433        7.6012565908
  C         2.9723228464        8.8865912985        7.8185137950
  C         5.2621813885        8.8903237663        7.8182546761
  C        10.1026380615        4.9272413062        7.5944082298
  C         8.9585224872        6.8736341680        7.7581350004
  C         7.8061921245        8.8711341474        7.7835901794
  C         6.5076864725       11.0405879704        7.6924328679
  C        11.3318166093        6.8743474459        7.7578598088
  C        10.1194099260        8.9525818232        7.6460020118
  C        12.3830958956        8.8848522232        7.6687935369
  C        13.5976627296       11.0159991422        7.4973946005
  N         5.3384815069       11.6397297067        7.3693728336
  N         6.5419174082        9.5849488043        7.7638993575
  N         7.7784455600        7.5432611872        7.7950180033
  N         8.9768932597        5.5478262578        7.7444730286
  N         7.6799308944       11.6539741438        7.7822386494
  N         8.9670410515        9.6013520096        7.6450274319
  N        10.1224273110        7.5784232886        7.7145037573
  N        11.3155626747        5.4988639691        7.7090994999
  N        11.2661198081        9.5764598280        7.4921730796
  N        12.4602028478        7.5754427632        7.8877085980
  N        13.6381563832        9.6027903902        7.6477729226
  N        12.4678783248       11.6423644664        7.2296953889
  N         0.6170742504        3.2904699854        6.8497192080
  N         1.7898941913        1.4075491150        7.4877752404
  N         2.9342005049        3.4477452209        7.2290643640
  N         5.3432425171        3.3778083747        7.3006715601
  N         7.7502971730        3.4652383105        7.4138919437
  N         8.9588736234        1.3421946076        7.7363649920
  N         6.5960310055        1.3489613809        7.4942997258
  N         4.2181211725        1.3749448384        7.1502540865
  N        10.1371226577        3.3875563039        7.4846742842
  N        11.2962347922        1.2575993908        7.1650864569
  N        12.4427422702        3.2962470926        7.0219987875
  N        13.6658399764        1.3238792128        7.1433877993
  N         5.2845438915        7.5609137844        7.7659245033
  N         4.1424103101        9.5646302306        7.9433415898
  N         0.5559284070       11.6813702065        7.6261080586
  N         1.7884417138        9.4947633764        7.9083086731
  N         2.9479771443        7.5339725293        7.5219778329
  N         4.0904774423        5.5203530716        7.5408447572
  N         1.7573395152        5.4759060850        7.1896775133
  N         0.5704336634        7.5362144910        7.2704502119
