      56
 i =      101, time =      101.000, E =      -152.8169691617
  C         0.5773581254        0.6516885713        7.4753837643
  C         1.7066899393        2.6575324448        7.2654248780
  C         5.3042368138        0.6320548521        7.3842648809
  C         4.2039629477        2.6995999381        7.3328115859
  C         7.6948029337        0.7267440967        7.6346286623
  C         6.5085043987        2.7657841212        7.4975991671
  C         8.7944834136        2.7494809783        7.5707600184
  C        12.3728023027        0.6197520591        7.1965303545
  C        11.3523060725        2.7260371949        7.2510708787
  C        13.6434042627        2.7382418637        6.9769231129
  C         2.9829603652        4.7910263425        7.4701036668
  C         1.8302286931        6.8559534384        7.2978733835
  C         0.6791299845        8.8550359110        7.5367236801
  C         4.2021605272        6.8180691758        7.6007805555
  C         2.9435449552        8.8730480205        7.7548597471
  C         5.2458432116        8.8206889557        7.7700143200
  C        10.1673606246        4.8956057140        7.5842411743
  C         8.9128387602        6.8229343342        7.7187740351
  C         7.8220612232        8.8949864453        7.7136548713
  C         6.5936666929       11.0843340364        7.5502957592
  C        11.3463150898        6.8488220906        7.7713899372
  C        10.1154650725        8.8892539158        7.6092076462
  C        12.4205002448        8.8545045822        7.6803324076
  C        13.6477293837       10.9843409467        7.3952761905
  N         5.4173690103       11.6444336102        7.2951016269
  N         6.5630177346        9.6165275811        7.7801595913
  N         7.7798392660        7.4902255179        7.7744563856
  N         8.9919227124        5.5004332936        7.6898268691
  N         7.7595340879       11.7306469267        7.6786860411
  N         9.0010459611        9.5608683952        7.5885576065
  N        10.1037173763        7.5241815368        7.6737308264
  N        11.3360156565        5.5140842847        7.6227699733
  N        11.2887191001        9.5073016291        7.4897084840
  N        12.4869067984        7.5245399030        7.9891665724
  N        13.6738998683        9.5942139857        7.5133520077
  N        12.4992522760       11.6169298085        7.2180776888
  N         0.5371729796        3.3806725057        6.9234166774
  N         1.6664841716        1.4007105251        7.5686567168
  N         2.9253265082        3.3873027830        7.3154372840
  N         5.3438712818        3.4001835474        7.3925695577
  N         7.6480381145        3.4762059097        7.4606523269
  N         8.8349197923        1.3929253018        7.6705628395
  N         6.4787653399        1.3737673178        7.4852609377
  N         4.1735097192        1.3472256949        7.2548657599
  N        10.0724977789        3.3736880184        7.4350813902
  N        11.2847190487        1.3341834439        7.2355693536
  N        12.4724887297        3.4184219943        7.0091240494
  N        13.6148611222        1.3671667446        7.1721343013
  N         5.3315129888        7.4813818005        7.6698270196
  N         4.1194772258        9.5144376990        7.8917700537
  N         0.6271351743       11.6794355649        7.6588374388
  N         1.8038573395        9.5420018525        7.8795973262
  N         3.0415647854        7.5562932159        7.4620134747
  N         4.1574924617        5.5014853433        7.6368576259
  N         1.8449407805        5.5562621681        7.3173026550
  N         0.6831902858        7.5682064091        7.2243560264
