      56
 i =      122, time =      122.000, E =      -152.8258534648
  C         0.6008125162        0.6891049230        7.4199998913
  C         1.7545633600        2.6914381882        7.1815490652
  C         5.3838366020        0.6740846025        7.2547309792
  C         4.1932893242        2.7006468066        7.2866044306
  C         7.7564193757        0.6982869705        7.6202635989
  C         6.5385807577        2.7345007793        7.4350165485
  C         8.8738682184        2.7556906947        7.5426777487
  C        12.4646328829        0.6246776966        7.1490060911
  C        11.2895427278        2.6462224410        7.2072180874
  C        13.6013005244        2.6588247031        7.0034420577
  C         2.9606718504        4.8574199857        7.3290116898
  C         1.7438442689        6.8430385368        7.3557965694
  C         0.6222874140        8.8612808855        7.5559692490
  C         4.1650239627        6.8110182973        7.6132099640
  C         2.9813039075        8.8705532892        7.7468670373
  C         5.3213928100        8.8967998959        7.8023254553
  C        10.1600284623        4.8810150488        7.5949693643
  C         8.9448252506        6.8717825867        7.7241017181
  C         7.7861595218        8.9377260080        7.7537938673
  C         6.5187889895       11.0304065176        7.6447716454
  C        11.3597132084        6.8192709753        7.8177857439
  C        10.0906712300        8.9124362151        7.5898918465
  C        12.4365016344        8.9058496588        7.6714272747
  C        13.6376620692       11.0175102249        7.5119164456
  N         5.4183088794       11.6897577399        7.3616743183
  N         6.5263271964        9.6218361764        7.8015720042
  N         7.8490642096        7.5731651070        7.7931283324
  N         8.9664696332        5.5267080025        7.7322274441
  N         7.6784474732       11.6886830004        7.7331370091
  N         8.9157009092        9.5841423955        7.6464126048
  N        10.1580927711        7.5359364620        7.7039257856
  N        11.3185165658        5.4984336753        7.6239283410
  N        11.2797691305        9.5398609912        7.4923513521
  N        12.4351803524        7.5756865146        7.9585118241
  N        13.6393857942        9.5903077851        7.5918225773
  N        12.5018243252       11.6417136868        7.1999513170
  N         0.5516776630        3.2834603325        6.8551826579
  N         1.7028836318        1.3744062617        7.5354765676
  N         2.9997438234        3.4300237451        7.2825484096
  N         5.3621386091        3.3552057270        7.3258362044
  N         7.7259636122        3.3409317047        7.4412778961
  N         8.8782058825        1.4305294220        7.7151024355
  N         6.5364312997        1.3856891840        7.5275373675
  N         4.2371793375        1.3464805645        7.2110916018
  N        10.1442081737        3.4570730265        7.4908468722
  N        11.2928429706        1.3466471158        7.1901938333
  N        12.4734301948        3.2695720415        7.0185430233
  N        13.6523547428        1.3164333891        7.1342871605
  N         5.2780287067        7.5599903296        7.7361725851
  N         4.1451584181        9.5444775624        7.9445389021
  N         0.5366851902       11.6957769901        7.6279138337
  N         1.7759279168        9.4747625191        7.9480048596
  N         2.9782825368        7.5165847740        7.4677857873
  N         4.1221395583        5.5029172902        7.5924950665
  N         1.7649275128        5.5099310470        7.2347531839
  N         0.6171284920        7.5542586712        7.2535454970
