      56
 i =      142, time =      142.000, E =      -152.8142094550
  C         0.6409129864        0.6270638203        7.4051870345
  C         1.7167623005        2.6634780438        7.1845702428
  C         5.3364335733        0.6669258764        7.3896307097
  C         4.2505634160        2.6937959973        7.2195718956
  C         7.7983903066        0.6418755081        7.7241817198
  C         6.6092081759        2.8000371418        7.3462006952
  C         8.8379602626        2.6224352413        7.5199766783
  C        12.4624320410        0.6311344076        7.1562942997
  C        11.3842178590        2.6036497518        7.2282888586
  C        13.6946399808        2.7164943401        6.9639183416
  C         2.9475872547        4.9100801520        7.2812452849
  C         1.7164551651        6.8202573069        7.2993992034
  C         0.6665481547        8.8115558038        7.6936560308
  C         4.1045802689        6.8552094112        7.5936552917
  C         2.9460639022        8.9212934784        7.8708668137
  C         5.2542218582        8.8684423155        7.8280104588
  C        10.1526573265        4.8526858842        7.6227115154
  C         8.9057701232        6.8945045996        7.7924287197
  C         7.8408294332        8.8481375889        7.7700922108
  C         6.5158231602       11.0366419758        7.6836543765
  C        11.3058226083        6.8810195816        7.7206099500
  C        10.1143556055        8.9849987136        7.6765885406
  C        12.3850011358        8.8820516878        7.6679985032
  C        13.6371541515       11.0680986275        7.4713977714
  N         5.3175652192       11.6651708234        7.3907134883
  N         6.5399665107        9.5639397187        7.7460634471
  N         7.7427981260        7.5313351410        7.8079395081
  N         8.9621187198        5.5547470046        7.7365339563
  N         7.6940743204       11.6684779646        7.8452663664
  N         8.9451200127        9.5691048048        7.6592752843
  N        10.1222079716        7.5668017313        7.7239055483
  N        11.2878635922        5.5696652930        7.7729492860
  N        11.2808015027        9.6068870410        7.5104680403
  N        12.4467313797        7.5509638239        7.8097789332
  N        13.6481345497        9.5770966010        7.6861972465
  N        12.4593681423       11.6340035545        7.2615907807
  N         0.6110336142        3.3581356523        6.8557113447
  N         1.7983332944        1.3510712343        7.4599224565
  N         2.9451486251        3.4079266138        7.1811087862
  N         5.4027587775        3.4126246651        7.2864753731
  N         7.7590067922        3.4354549194        7.3729614314
  N         8.9457899456        1.3162706605        7.7281578095
  N         6.6124064836        1.3561063166        7.4404325171
  N         4.2375975363        1.3597806238        7.1139446557
  N        10.1204633459        3.4041836241        7.4624223122
  N        11.2753511182        1.2946298927        7.1418513664
  N        12.5083545354        3.3738221621        7.0207990065
  N        13.6802559643        1.3081586409        7.1699901281
  N         5.3041908578        7.5372701213        7.7735555154
  N         4.0814242249        9.5621648097        7.9356183067
  N         0.5630965953       11.6619448937        7.6166046981
  N         1.7858019227        9.5112513155        7.8770040554
  N         2.8897364336        7.5461519154        7.5805929622
  N         4.0782429162        5.5543576181        7.4782904542
  N         1.7714219445        5.4974664478        7.1509082081
  N         0.6121009835        7.5296360873        7.3193904677
