      56
 i =      143, time =      143.000, E =      -152.8160177924
  C         0.6474865900        0.6315921015        7.4047643844
  C         1.7248855364        2.6631447741        7.1829824566
  C         5.3339149221        0.6661301223        7.3939394862
  C         4.2540451490        2.6971306087        7.2137729789
  C         7.7927715003        0.6419564796        7.7276916455
  C         6.6099805021        2.7997781536        7.3444618440
  C         8.8295996509        2.6217813780        7.5210640253
  C        12.4679267997        0.6232322282        7.1598226753
  C        11.3865405805        2.6033248350        7.2291591785
  C        13.6878372675        2.7214795631        6.9615769692
  C         2.9423874689        4.9060395426        7.2800955507
  C         1.7186695204        6.8288573533        7.2978435409
  C         0.6597637164        8.8137758721        7.6948755280
  C         4.1002880341        6.8509551776        7.5946364398
  C         2.9427264092        8.9207598372        7.8733728937
  C         5.2568433346        8.8662650851        7.8285772046
  C        10.1590245065        4.8452726797        7.6284105727
  C         8.9016486921        6.8900753237        7.7953956629
  C         7.8375968984        8.8508896034        7.7667251567
  C         6.5129185450       11.0340043037        7.6796773144
  C        11.3032737929        6.8788951030        7.7191437777
  C        10.1167401129        8.9843657287        7.6774585662
  C        12.3934732870        8.8829287219        7.6676947789
  C        13.6434195157       11.0648900324        7.4707225933
  N         5.3235733886       11.6695216810        7.3961133110
  N         6.5385949256        9.5652638850        7.7450714657
  N         7.7425667230        7.5303622130        7.8104090501
  N         8.9613703551        5.5545729020        7.7344995901
  N         7.6945518411       11.6695158494        7.8537343518
  N         8.9383847340        9.5651119035        7.6618989489
  N        10.1202706498        7.5684975480        7.7250633334
  N        11.2828841284        5.5740055859        7.7780411748
  N        11.2802834282        9.6083229861        7.5146311452
  N        12.4424483239        7.5495030538        7.8000938216
  N        13.6491417307        9.5753898635        7.6891555226
  N        12.4606841504       11.6371595187        7.2646385813
  N         0.6046049692        3.3654849836        6.8571206408
  N         1.7909231940        1.3407400794        7.4567933513
  N         2.9530460977        3.4045388091        7.1764115850
  N         5.4119996296        3.4141491240        7.2850771769
  N         7.7617725196        3.4220615830        7.3680245000
  N         8.9400667439        1.3170471271        7.7269416074
  N         6.6113161138        1.3597510417        7.4350754837
  N         4.2421308599        1.3572770157        7.1119756062
  N        10.1197049997        3.4051519241        7.4593909137
  N        11.2770709455        1.3034652766        7.1393947598
  N        12.5186158164        3.3774470874        7.0211752191
  N        13.6815701250        1.3092660274        7.1729593434
  N         5.2994222267        7.5322898906        7.7725453537
  N         4.0778119122        9.5608222625        7.9350939821
  N         0.5646210140       11.6598857534        7.6147574371
  N         1.7807417528        9.5160911505        7.8757233864
  N         2.8875358508        7.5445868411        7.5877951052
  N         4.0809984004        5.5591992862        7.4710543750
  N         1.7730059868        5.5032515310        7.1462319811
  N         0.6180915443        7.5291667049        7.3263331064
