      56
 i =      137, time =      137.000, E =      -152.8128299816
  C         0.6183530397        0.6244832050        7.4072038144
  C         1.6962258211        2.6669877954        7.1884798400
  C         5.3596292228        0.6719166741        7.3571474867
  C         4.2325333403        2.6881639218        7.2447667312
  C         7.8061839932        0.6468246957        7.6992455906
  C         6.5856419385        2.7883287529        7.3572630221
  C         8.8922034013        2.6538919801        7.5144484966
  C        12.4343170114        0.6613966740        7.1421700017
  C        11.3648759280        2.6330022885        7.2216359599
  C        13.7095588160        2.6939117674        6.9788174383
  C         2.9609419651        4.9033278652        7.2831859716
  C         1.7139599739        6.7920645002        7.3140999208
  C         0.6858566869        8.8125031511        7.6766276688
  C         4.1329653556        6.8866643022        7.5952249692
  C         2.9616283558        8.9082538138        7.8476137075
  C         5.2491550545        8.8791065406        7.8234619415
  C        10.1160308147        4.8982014379        7.6022077105
  C         8.9363749778        6.8926551632        7.7745011613
  C         7.8319984224        8.8481315367        7.7820596821
  C         6.5196732934       11.0439515798        7.6956410405
  C        11.3179091514        6.8857849136        7.7361882051
  C        10.1130823805        8.9732845249        7.6643955538
  C        12.3656193395        8.8795449228        7.6686238052
  C        13.6098950563       11.0529482003        7.4825566723
  N         5.3129159998       11.6451840060        7.3733719558
  N         6.5429530063        9.5694357781        7.7537486160
  N         7.7539581625        7.5386509636        7.7988279784
  N         8.9711745328        5.5506992667        7.7432026711
  N         7.6865668259       11.6593428926        7.8074064371
  N         8.9681027065        9.5900974891        7.6489453285
  N        10.1238905050        7.5701977202        7.7185469996
  N        11.3089075747        5.5315542475        7.7414371335
  N        11.2760409121        9.5929805232        7.4967596582
  N        12.4615738159        7.5644390268        7.8547516813
  N        13.6430268609        9.5905819240        7.6671610996
  N        12.4602910426       11.6308267996        7.2449461426
  N         0.6322923668        3.3166194268        6.8523663180
  N         1.8113236054        1.3943238869        7.4745195716
  N         2.9252185195        3.4295087896        7.2065553314
  N         5.3611713061        3.3969209151        7.2935911508
  N         7.7518744273        3.4750470238        7.3965878302
  N         8.9626385417        1.3226206357        7.7342618543
  N         6.6088985439        1.3452665969        7.4701938563
  N         4.2202346899        1.3729039811        7.1301733521
  N        10.1286016372        3.3937584128        7.4761999043
  N        11.2835240646        1.2598873718        7.1546429445
  N        12.4615971356        3.3372927113        7.0210270993
  N        13.6724625257        1.3115103136        7.1548410215
  N         5.3048902235        7.5561570121        7.7728476330
  N         4.1133919953        9.5657151942        7.9394306622
  N         0.5585639183       11.6727448168        7.6232955408
  N         1.7936307929        9.4966400772        7.8902190956
  N         2.9159445038        7.5442775351        7.5468415213
  N         4.0762406365        5.5292965194        7.5131843788
  N         1.7637272052        5.4773594244        7.1728280695
  N         0.5820217282        7.5331912224        7.2887884406
