      56
 i =      114, time =      114.000, E =      -152.8192611645
  C         0.5631910941        0.6686667631        7.4342497430
  C         1.6541275015        2.6868795363        7.1813246575
  C         5.3632616753        0.6944582253        7.2816072965
  C         4.2737768943        2.6540390641        7.3019641637
  C         7.7124369284        0.7285800394        7.6164767017
  C         6.5297983092        2.7201548165        7.4824008329
  C         8.8074630280        2.7189481407        7.5797332765
  C        12.4519113401        0.6319514474        7.1669227056
  C        11.3302062099        2.6565129608        7.2168888854
  C        13.6165535692        2.6680273011        6.9914935173
  C         2.9599949071        4.9117274274        7.3943789421
  C         1.7888286871        6.8862724676        7.3418118460
  C         0.6640146948        8.8796770924        7.5291923597
  C         4.1615047493        6.7965685413        7.6163537144
  C         2.9678550074        8.9020552869        7.7371340841
  C         5.2747469541        8.8556633059        7.7932601697
  C        10.1585558821        4.8478920525        7.6043949895
  C         8.9465557736        6.8521711041        7.7154076820
  C         7.8030624265        8.8972992394        7.7293933853
  C         6.5804060601       11.0709381159        7.5991142258
  C        11.3468970884        6.8317468110        7.8234219825
  C        10.0987484161        8.9001146976        7.5764988017
  C        12.3925501033        8.8511336921        7.6848885154
  C        13.6892781673       11.0691673731        7.4760612373
  N         5.4163122837       11.7078211479        7.3355716812
  N         6.5330051707        9.6238016248        7.8195000328
  N         7.8170903931        7.6124260273        7.7909217845
  N         8.9808469762        5.4986454901        7.7117118669
  N         7.7162918398       11.7488744606        7.7080581061
  N         8.9383321218        9.5767936604        7.6344075900
  N        10.1652157266        7.4977013327        7.6912663383
  N        11.3515306145        5.5311364417        7.5933886443
  N        11.2741531879        9.5332264919        7.4915939066
  N        12.4608592843        7.5661635234        7.9886683633
  N        13.6685627915        9.5829086039        7.5548740481
  N        12.5015637417       11.6256709752        7.1973761070
  N         0.5775479639        3.3135326797        6.8819809500
  N         1.6949791285        1.3819846812        7.5606710742
  N         2.9881225395        3.3859497152        7.3009574092
  N         5.3901919594        3.3800375952        7.3479930582
  N         7.6644784762        3.3478319272        7.4399643416
  N         8.8239144540        1.4325271420        7.6895285115
  N         6.5180832769        1.3709502723        7.5158079671
  N         4.2130053065        1.3382896393        7.2367506844
  N        10.1092127200        3.4794568272        7.4748416797
  N        11.2899909835        1.3408803373        7.2059381353
  N        12.4627208465        3.3510684533        7.0140551480
  N        13.6257351613        1.2752831821        7.1472934462
  N         5.3248999570        7.5290459169        7.7086530169
  N         4.1049595187        9.5207901516        7.9268290909
  N         0.5512703605       11.6921198196        7.6391510465
  N         1.7676194968        9.4509582522        7.9327196935
  N         2.9639756244        7.5176473369        7.4467030849
  N         4.1288246351        5.4568517044        7.6092928916
  N         1.8172679130        5.5264104853        7.2698981916
  N         0.6647319551        7.5722637255        7.2522205156
