      56
 i =      139, time =      139.000, E =      -152.8105702869
  C         0.6245596341        0.6212478490        7.4063539170
  C         1.6986614456        2.6656285860        7.1873219674
  C         5.3491115131        0.6701086338        7.3721410523
  C         4.2404363301        2.6879043921        7.2354922134
  C         7.8068923034        0.6438572383        7.7105086819
  C         6.5983273779        2.7948480616        7.3522257640
  C         8.8693523857        2.6358522234        7.5164915157
  C        12.4449287188        0.6524725976        7.1469373302
  C        11.3742927170        2.6170148207        7.2246596950
  C        13.7079647113        2.7022653937        6.9724958976
  C         2.9585979008        4.9118070146        7.2830049055
  C         1.7138188948        6.7999283081        7.3070812252
  C         0.6818697967        8.8101014513        7.6857674812
  C         4.1205787756        6.8735272194        7.5934650364
  C         2.9555885735        8.9163306092        7.8589624327
  C         5.2489481328        8.8745663024        7.8255786045
  C        10.1301685527        4.8793899449        7.6087744191
  C         8.9229823800        6.8979014184        7.7821788278
  C         7.8400286644        8.8445952565        7.7784443232
  C         6.5207900187       11.0424984919        7.6927849056
  C        11.3127197120        6.8858559341        7.7282990696
  C        10.1113540284        8.9806594477        7.6708419158
  C        12.3678477698        8.8798287557        7.6684697759
  C        13.6196320384       11.0649211887        7.4766912636
  N         5.3094804569       11.6521704094        7.3783796562
  N         6.5423860877        9.5649133912        7.7500679846
  N         7.7471292901        7.5355829205        7.8018227843
  N         8.9669228411        5.5527576333        7.7412641729
  N         7.6901447461       11.6633715992        7.8215895191
  N         8.9618173162        9.5819614192        7.6524104484
  N        10.1245360817        7.5667881458        7.7206196494
  N        11.3017812561        5.5488914294        7.7552753309
  N        11.2795492901        9.5997157756        7.5009388950
  N        12.4575030867        7.5582873305        7.8374328597
  N        13.6451442075        9.5844160749        7.6755512470
  N        12.4586086019       11.6292662927        7.2519443540
  N         0.6278522466        3.3331631576        6.8533355095
  N         1.8115927083        1.3797209735        7.4687196683
  N         2.9289526842        3.4201536562        7.1960026849
  N         5.3760376185        3.4047347487        7.2906261106
  N         7.7535392083        3.4657029918        7.3873675697
  N         8.9584930741        1.3178447035        7.7320063415
  N         6.6120184053        1.3477741408        7.4579269210
  N         4.2255811679        1.3683254990        7.1224169630
  N        10.1247398802        3.3986350394        7.4710480668
  N        11.2776370304        1.2707804074        7.1494774726
  N        12.4783691373        3.3552183339        7.0206063951
  N        13.6757644245        1.3082867181        7.1608976024
  N         5.3091418813        7.5502508200        7.7742927989
  N         4.0985668178        9.5649356592        7.9376910312
  N         0.5598973094       11.6684305030        7.6210906012
  N         1.7935550441        9.5004374370        7.8835572115
  N         2.9027115819        7.5469859217        7.5599016402
  N         4.0741666620        5.5382199484        7.4993416517
  N         1.7668318511        5.4832193699        7.1643073839
  N         0.5930488604        7.5317178003        7.3000903430
