      56
 i =      138, time =      138.000, E =      -152.8111852753
  C         0.6209209780        0.6221990947        7.4067637578
  C         1.6962705615        2.6663721271        7.1879113560
  C         5.3543427886        0.6711050978        7.3648845368
  C         4.2366556423        2.6876092054        7.2402909714
  C         7.8070851128        0.6451999606        7.7050172704
  C         6.5923277721        2.7917502986        7.3546345204
  C         8.8808868264        2.6441473216        7.5153990459
  C        12.4393270071        0.6576596770        7.1443707396
  C        11.3698590157        2.6246296920        7.2231762092
  C        13.7095283228        2.6979441396        6.9756597359
  C         2.9602755782        4.9084660231        7.2831526472
  C         1.7137851876        6.7953765737        7.3104718116
  C         0.6845895783        8.8110511824        7.6815667100
  C         4.1267121388        6.8803125868        7.5941986059
  C         2.9586626990        8.9126478120        7.8535624379
  C         5.2485933522        8.8767646515        7.8245563931
  C        10.1227125516        4.8889614631        7.6052112828
  C         8.9297041907        6.8958763567        7.7783788447
  C         7.8366012432        8.8457034467        7.7804824824
  C         6.5207035949       11.0435022387        7.6945812864
  C        11.3152077628        6.8862494069        7.7320023862
  C        10.1119144476        8.9773157854        7.6678479884
  C        12.3657417295        8.8795054822        7.6685540806
  C        13.6144827350       11.0597353257        7.4794487683
  N         5.3103450605       11.6483883674        7.3755596099
  N         6.5427592328        9.5668459216        7.7518117381
  N         7.7501285098        7.5371618215        7.8002130668
  N         8.9690512760        5.5517160371        7.7423583197
  N         7.6883714054       11.6613266139        7.8142958354
  N         8.9655398540        9.5861780775        7.6505443518
  N        10.1243503680        7.5682645676        7.7195682052
  N        11.3056497345        5.5403038464        7.7485137873
  N        11.2780235248        9.5964886263        7.4986459077
  N        12.4599274662        7.5613440702        7.8462464200
  N        13.6441006592        9.5874388250        7.6714458002
  N        12.4592667828       11.6295919004        7.2484828488
  N         0.6310125447        3.3246656043        6.8528471268
  N         1.8123924695        1.3876460757        7.4716121132
  N         2.9263553973        3.4247890281        7.2012539901
  N         5.3681465796        3.4010198592        7.2920843677
  N         7.7525571235        3.4715799698        7.3920502082
  N         8.9610434048        1.3198536047        7.7332041360
  N         6.6107230508        1.3461686798        7.4640781072
  N         4.2225597129        1.3708529695        7.1261184327
  N        10.1266225239        3.3962001405        7.4737103341
  N        11.2803339168        1.2646298213        7.1520738606
  N        12.4694611228        3.3466257323        7.0207834693
  N        13.6741218454        1.3096011574        7.1578386547
  N         5.3076791923        7.5535384243        7.7737514892
  N         4.1058483251        9.5654367836        7.9385372152
  N         0.5591801143       11.6706114819        7.6222720929
  N         1.7939777543        9.4982050732        7.8866880495
  N         2.9089957332        7.5459130287        7.5532621742
  N         4.0747065154        5.5333931257        7.5063090758
  N         1.7652827479        5.4798598259        7.1686242528
  N         0.5871834353        7.5324662028        7.2942332472
