      56
 i =      134, time =      134.000, E =      -152.8212407360
  C         0.6161910570        0.6381832995        7.4089127923
  C         1.7102985784        2.6683765643        7.1904211791
  C         5.3747454613        0.6728873962        7.3308625625
  C         4.2170292494        2.6942762527        7.2569386346
  C         7.7984825451        0.6535057556        7.6800862857
  C         6.5632055222        2.7769121469        7.3672008607
  C         8.9227397512        2.6899469444        7.5129230039
  C        12.4246646671        0.6631653854        7.1376591329
  C        11.3456664547        2.6592596049        7.2168688554
  C        13.7005429212        2.6828033227        6.9881526895
  C         2.9584523365        4.8789447872        7.2835507677
  C         1.7151388864        6.7889268408        7.3261761807
  C         0.6807243490        8.8191630165        7.6567588857
  C         4.1519054745        6.9001181569        7.5996119955
  C         2.9699620025        8.8921009741        7.8262775905
  C         5.2573090899        8.8873790081        7.8196464993
  C        10.1033430565        4.9219312422        7.5957688078
  C         8.9542698054        6.8785026880        7.7622006956
  C         7.8130512502        8.8637044615        7.7839717055
  C         6.5114696029       11.0420967501        7.6943297278
  C        11.3279846029        6.8785660867        7.7519094237
  C        10.1181461381        8.9580209965        7.6511108405
  C        12.3764847731        8.8826786299        7.6687739378
  C        13.5996103631       11.0256208874        7.4935985528
  N         5.3302473245       11.6397765497        7.3697752363
  N         6.5424734152        9.5805866481        7.7610512689
  N         7.7711421953        7.5423266563        7.7957162286
  N         8.9761933788        5.5483227608        7.7444564351
  N         7.6813888915       11.6546852549        7.7880733807
  N         8.9689490953        9.5994619914        7.6456136425
  N        10.1223988786        7.5768228324        7.7154902849
  N        11.3149113434        5.5060128830        7.7175482544
  N        11.2684677965        9.5807727605        7.4929166276
  N        12.4617038230        7.5731589995        7.8797759333
  N        13.6394197809        9.6001199000        7.6528175519
  N        12.4655069882       11.6389233762        7.2335366133
  N         0.6236724564        3.2957738149        6.8504647882
  N         1.7974435058        1.4064839479        7.4842068624
  N         2.9301097859        3.4436846028        7.2233912358
  N         5.3459934822        3.3826733873        7.2987609359
  N         7.7506632521        3.4711085528        7.4098184529
  N         8.9614025228        1.3361084348        7.7362604168
  N         6.6000171587        1.3469556141        7.4885761869
  N         4.2175583813        1.3754639967        7.1448135527
  N        10.1349970911        3.3880801586        7.4828452965
  N        11.2936316288        1.2554169381        7.1625088417
  N        12.4451529312        3.3062547842        7.0218312055
  N        13.6674017185        1.3203915369        7.1460449550
  N         5.2903300461        7.5604750742        7.7680551281
  N         4.1359838563        9.5652253780        7.9423717660
  N         0.5566971024       11.6792208939        7.6256048408
  N         1.7899426429        9.4948165786        7.9033895241
  N         2.9399328179        7.5368151484        7.5279486769
  N         4.0861007313        5.5214999865        7.5341161187
  N         1.7588735945        5.4749860125        7.1855171219
  N         0.5716827417        7.5354092528        7.2743842175
