      56
 i =      102, time =      102.000, E =      -152.8161089097
  C         0.5812880761        0.6526690635        7.4732171913
  C         1.7011179917        2.6518271669        7.2597363907
  C         5.3097507733        0.6383372783        7.3781348533
  C         4.2186720285        2.6940322979        7.3302747301
  C         7.6894152152        0.7290195847        7.6336923933
  C         6.5046436013        2.7596940289        7.4999202554
  C         8.7930834902        2.7472854715        7.5755442563
  C        12.3715408563        0.6158103416        7.1941969845
  C        11.3539011508        2.7273241352        7.2493213002
  C        13.6469123607        2.7338659004        6.9759240516
  C         2.9771573563        4.7988324303        7.4668627313
  C         1.8257292465        6.8591678645        7.2997999672
  C         0.6811714786        8.8558835911        7.5347622650
  C         4.2003469135        6.8202198145        7.6029876314
  C         2.9400868298        8.8764454122        7.7530484073
  C         5.2404200494        8.8198087820        7.7726539742
  C        10.1667467079        4.8968374965        7.5881502342
  C         8.9191869884        6.8196707822        7.7183807856
  C         7.8196721087        8.8962308579        7.7140615629
  C         6.5932596227       11.0907765225        7.5512370587
  C        11.3461032319        6.8503702329        7.7764612480
  C        10.1164776201        8.8915945792        7.6057489819
  C        12.4128573110        8.8481304845        7.6825938897
  C        13.6482398209       10.9881423431        7.3983985126
  N         5.4175559685       11.6495997250        7.2968654044
  N         6.5602471761        9.6179399907        7.7869421656
  N         7.7793448243        7.4991693619        7.7763195792
  N         8.9921974196        5.5005805019        7.6907173475
  N         7.7625029889       11.7393028553        7.6804617581
  N         9.0049207893        9.5630758620        7.5918579792
  N        10.1047550652        7.5219453594        7.6742251112
  N        11.3406504329        5.5155207891        7.6172294017
  N        11.2804190723        9.5103327108        7.4894452103
  N        12.4891731978        7.5270377415        7.9925705502
  N        13.6769214957        9.5968656766        7.5154389036
  N        12.4980436830       11.6210364183        7.2159347766
  N         0.5361240586        3.3774593503        6.9192989523
  N         1.6652181653        1.4009954447        7.5675391083
  N         2.9264519375        3.3835789534        7.3133908999
  N         5.3547566035        3.4000925337        7.3888705237
  N         7.6447512830        3.4715902746        7.4566547342
  N         8.8331749136        1.3887677973        7.6711855111
  N         6.4832885006        1.3693917689        7.4862685502
  N         4.1742749609        1.3452849463        7.2532078937
  N        10.0709819935        3.3768019700        7.4372926415
  N        11.2870783316        1.3274170884        7.2330186070
  N        12.4728856874        3.4188152146        7.0090358441
  N        13.6132048975        1.3592235650        7.1695327301
  N         5.3321452341        7.4795642083        7.6716033155
  N         4.1138260404        9.5138950818        7.8939854562
  N         0.6285960279       11.6820902653        7.6601760431
  N         1.8023105065        9.5327450480        7.8848008501
  N         3.0380298755        7.5542441505        7.4596125751
  N         4.1592960060        5.4981672942        7.6354565118
  N         1.8455772851        5.5585738562        7.3145493264
  N         0.6834292618        7.5697021380        7.2272695942
