      56
 i =      127, time =      127.000, E =      -152.8231338156
  C         0.6205636485        0.6800767007        7.4152320855
  C         1.7683839372        2.6799996006        7.1896416736
  C         5.3897659535        0.6695210519        7.2727149769
  C         4.1809747745        2.7116786318        7.2770387568
  C         7.7726375576        0.6772645685        7.6377729184
  C         6.5319091884        2.7513597436        7.4029445906
  C         8.9265594422        2.7571117845        7.5232838550
  C        12.4432899224        0.6307584875        7.1401240329
  C        11.2949404853        2.6756909787        7.2090847572
  C        13.6402737764        2.6643733961        7.0023733584
  C         2.9528637304        4.8328760622        7.2991769440
  C         1.7242083657        6.8128882968        7.3500865147
  C         0.6370483876        8.8420503826        7.5939043317
  C         4.1730294923        6.8658922119        7.6095757970
  C         2.9805858091        8.8647532521        7.7723573187
  C         5.3041334023        8.9032355109        7.8091577993
  C        10.1325349447        4.9216769271        7.5918834149
  C         8.9595749564        6.8622046068        7.7362622348
  C         7.7789495414        8.9214176179        7.7712687743
  C         6.4945521076       11.0292129968        7.6696175016
  C        11.3537947684        6.8391812059        7.7954458116
  C        10.1101433121        8.9249681569        7.6125243187
  C        12.4293638807        8.9043981920        7.6688877873
  C        13.6049251186       10.9863370374        7.5138585149
  N         5.3942636596       11.6592594009        7.3686510298
  N         6.5337933395        9.6102907726        7.7843360322
  N         7.8281128518        7.5517470587        7.7932380087
  N         8.9705302410        5.5422838008        7.7406360952
  N         7.6748151024       11.6632427750        7.7522373203
  N         8.9394196266        9.5977029810        7.6455389049
  N        10.1355032900        7.5681744817        7.7088582698
  N        11.3121923447        5.4810482826        7.6577895575
  N        11.2655568024        9.5522489334        7.4912511368
  N        12.4426293727        7.5799607886        7.9310000811
  N        13.6329856013        9.6046353533        7.6163709160
  N        12.4874066561       11.6544533513        7.2093295041
  N         0.5659004420        3.2761901652        6.8480613871
  N         1.7321690420        1.3901698390        7.5132936919
  N         2.9735086149        3.4530493190        7.2617879902
  N         5.3471522639        3.3556433427        7.3139684658
  N         7.7441001961        3.3972616885        7.4335116701
  N         8.9226854262        1.3914007687        7.7293087169
  N         6.5635318485        1.3710534128        7.5204946002
  N         4.2308073743        1.3607354830        7.1856151824
  N        10.1473666435        3.4111693716        7.4913549020
  N        11.2986992373        1.3025171338        7.1798318729
  N        12.4569581924        3.2578438142        7.0209328630
  N        13.6587918680        1.3356426605        7.1330705538
  N         5.2631607012        7.5609914890        7.7502544887
  N         4.1589616536        9.5565997427        7.9471492723
  N         0.5475473227       11.6932607173        7.6271184331
  N         1.7815126334        9.4904023012        7.9369869348
  N         2.9812060453        7.5204583419        7.4893302297
  N         4.1151038625        5.5178940256        7.5753418578
  N         1.7533297653        5.4936881011        7.2146106811
  N         0.5861861228        7.5437782890        7.2560361902
