      56
 i =      106, time =      106.000, E =      -152.8182730603
  C         0.5840900073        0.6564386122        7.4617396419
  C         1.6681687855        2.6467790348        7.2318412999
  C         5.3310497249        0.6677345529        7.3480671871
  C         4.2695176731        2.6683041991        7.3204703616
  C         7.6771670471        0.7348380338        7.6279816207
  C         6.4950746178        2.7388797183        7.5032539163
  C         8.7913834519        2.7346527235        7.5883361481
  C        12.3840563718        0.6103983968        7.1850878373
  C        11.3562408348        2.7196732460        7.2395905209
  C        13.6519252082        2.7123590024        6.9765877721
  C         2.9578272567        4.8461420209        7.4489380816
  C         1.8114043543        6.8756254003        7.3114188303
  C         0.6888664014        8.8641363929        7.5291664031
  C         4.1881618247        6.8238856485        7.6105174244
  C         2.9373832437        8.8943867821        7.7466521586
  C         5.2314718724        8.8231759904        7.7815833826
  C        10.1599220469        4.8898733068        7.6004547532
  C         8.9412959974        6.8148896234        7.7165313032
  C         7.8103194321        8.8921492541        7.7166922260
  C         6.5931664684       11.1025302450        7.5600714408
  C        11.3442937938        6.8528470011        7.7964961238
  C        10.1209785138        8.8974398782        7.5921259642
  C        12.3896422016        8.8270305757        7.6894159971
  C        13.6602146217       11.0158180421        7.4183674712
  N         5.4162256314       11.6717209099        7.3068331125
  N         6.5506186932        9.6208451835        7.8077623500
  N         7.7811144355        7.5467254310        7.7829374355
  N         8.9925060011        5.4985248468        7.6952125181
  N         7.7624477231       11.7651884680        7.6884667630
  N         9.0014824249        9.5714011321        7.6063048627
  N        10.1190021454        7.5106447918        7.6777470409
  N        11.3558056702        5.5229415834        7.5996964977
  N        11.2577873543        9.5213906366        7.4891658306
  N        12.4904251062        7.5412905922        7.9992522557
  N        13.6835548360        9.5983970303        7.5257143271
  N        12.4948591518       11.6326367366        7.2076290591
  N         0.5471114897        3.3598737502        6.9056995324
  N         1.6698393211        1.3988671230        7.5653053087
  N         2.9405703953        3.3738702767        7.3078897243
  N         5.3876413868        3.3975278343        7.3747699861
  N         7.6375253404        3.4398539445        7.4445747349
  N         8.8243307881        1.3866878536        7.6747398045
  N         6.5028036286        1.3567408203        7.4939135446
  N         4.1802762795        1.3398791302        7.2479058826
  N        10.0733226917        3.4045526239        7.4481236431
  N        11.2932637975        1.3118586593        7.2233273497
  N        12.4681148611        3.4117843507        7.0097695006
  N        13.6092920342        1.3210822893        7.1610073418
  N         5.3365183455        7.4834194550        7.6810457969
  N         4.0980791063        9.5122507785        7.9038278435
  N         0.6175122502       11.6908175584        7.6589796024
  N         1.7909614493        9.4927359806        7.9024262652
  N         3.0130362667        7.5408289093        7.4508219007
  N         4.1572572922        5.4762636722        7.6280437202
  N         1.8473988194        5.5543308992        7.3022662386
  N         0.6835903310        7.5747052257        7.2385144084
