      56
 i =      111, time =      111.000, E =      -152.8196551445
  C         0.5682422031        0.6617466697        7.4440420018
  C         1.6408145381        2.6716028981        7.1953539288
  C         5.3529288749        0.6929699780        7.3050943599
  C         4.2899936957        2.6491964835        7.3086836186
  C         7.6920360192        0.7341567836        7.6199950465
  C         6.5116232930        2.7229940538        7.4943622670
  C         8.7975774198        2.7190760363        7.5882251528
  C        12.4265584005        0.6234188626        7.1738288247
  C        11.3453447736        2.6838563638        7.2248214941
  C        13.6346311672        2.6821181400        6.9848606378
  C         2.9534497819        4.9014172285        7.4173737278
  C         1.7993856348        6.8894468448        7.3307545397
  C         0.6817635087        8.8770251128        7.5273735146
  C         4.1693161906        6.8101543459        7.6156852968
  C         2.9549896929        8.9063506444        7.7398443624
  C         5.2506442411        8.8401676763        7.7895940078
  C        10.1555529225        4.8620675092        7.6060017089
  C         8.9499592652        6.8338848101        7.7150375037
  C         7.8043270358        8.8866929209        7.7233189081
  C         6.5906115233       11.0889534838        7.5819444670
  C        11.3436471921        6.8430309298        7.8163935588
  C        10.1116607382        8.8986282797        7.5795710484
  C        12.3828612948        8.8305321177        7.6894743727
  C        13.6839652969       11.0576770445        7.4540662492
  N         5.4146715023       11.6979751619        7.3239823245
  N         6.5396100486        9.6226347792        7.8195539519
  N         7.7989976373        7.6014663345        7.7886859788
  N         8.9874469764        5.4955177282        7.7042744614
  N         7.7377215325       11.7655936990        7.7000422910
  N         8.9649362291        9.5769125916        7.6248266856
  N        10.1500816282        7.4982014289        7.6855224372
  N        11.3592501132        5.5315287231        7.5908671837
  N        11.2618053219        9.5306540321        7.4904143076
  N        12.4754192563        7.5593718608        7.9955284826
  N        13.6779906639        9.5884725150        7.5426122205
  N        12.4974819908       11.6300295491        7.1998327104
  N         0.5734314933        3.3303779807        6.8917584186
  N         1.6873236203        1.3892442110        7.5640993253
  N         2.9705817679        3.3763199726        7.3040012663
  N         5.3974110184        3.3889309183        7.3578070757
  N         7.6467723139        3.3809654051        7.4391772309
  N         8.8183518303        1.4127731164        7.6824903856
  N         6.5160982038        1.3601737417        7.5075558189
  N         4.1982229667        1.3381216510        7.2419133709
  N        10.0925759435        3.4557826918        7.4647756920
  N        11.2921357800        1.3230085855        7.2122410322
  N        12.4608614797        3.3809986316        7.0122615653
  N        13.6156944875        1.2818318696        7.1524857841
  N         5.3349895004        7.5090691421        7.6973922303
  N         4.0961299871        9.5149621172        7.9179135229
  N         0.5769776723       11.6935894215        7.6474143394
  N         1.7727536083        9.4569306934        7.9214527655
  N         2.9759652983        7.5235009831        7.4452309078
  N         4.1395876392        5.4544394638        7.6162987331
  N         1.8357697131        5.5355418149        7.2832635732
  N         0.6758424973        7.5756881096        7.2488996971
