      56
 i =      146, time =      146.000, E =      -152.8189522259
  C         0.6648222965        0.6494972128        7.4031762087
  C         1.7484942949        2.6645786205        7.1750320874
  C         5.3344832563        0.6660591384        7.4016271646
  C         4.2666414577        2.7092557639        7.1954160568
  C         7.7682783802        0.6447744846        7.7344214931
  C         6.6031829271        2.7904398144        7.3397588237
  C         8.8160721999        2.6291475526        7.5237288513
  C        12.4818488726        0.6032276800        7.1707846834
  C        11.3905132264        2.6171501612        7.2305039931
  C        13.6645032857        2.7349339468        6.9572292150
  C         2.9256983132        4.8870242300        7.2746486735
  C         1.7311987918        6.8571153807        7.2969242422
  C         0.6379464684        8.8262633940        7.6947555537
  C         4.0915371752        6.8472580185        7.6006075699
  C         2.9319425853        8.9132079946        7.8762927359
  C         5.2648810173        8.8583212839        7.8293122410
  C        10.1701956762        4.8303509169        7.6479478699
  C         8.8956880792        6.8686097713        7.8025036062
  C         7.8172187400        8.8605182898        7.7557576016
  C         6.5036096313       11.0254281080        7.6668259341
  C        11.2931995850        6.8740986536        7.7180020144
  C        10.1252867192        8.9761015197        7.6770747481
  C        12.4217553406        8.8850783805        7.6659338478
  C        13.6623747564       11.0437301548        7.4723147431
  N         5.3495000270       11.6803923027        7.4156098071
  N         6.5319840985        9.5737110522        7.7429443838
  N         7.7443118334        7.5294748156        7.8189290314
  N         8.9625430766        5.5493085734        7.7273011239
  N         7.6918398194       11.6697903365        7.8800719913
  N         8.9184156692        9.5555542321        7.6702221538
  N        10.1110726571        7.5781151941        7.7287316954
  N        11.2691628345        5.5759364867        7.7908865985
  N        11.2776259381        9.6091881695        7.5302882394
  N        12.4298201595        7.5492044045        7.7700294784
  N        13.6523149192        9.5730948309        7.6958237225
  N        12.4685086927       11.6483823372        7.2735498964
  N         0.5898279082        3.3812451387        6.8642070075
  N         1.7648797925        1.3125826967        7.4464627625
  N         2.9820741508        3.3970160091        7.1633265187
  N         5.4371093080        3.4157394591        7.2805050735
  N         7.7716996733        3.3773853297        7.3527854850
  N         8.9192206582        1.3225276485        7.7241798448
  N         6.6038084563        1.3715444703        7.4214100588
  N         4.2550352170        1.3537689735        7.1086929459
  N        10.1204681275        3.4049302867        7.4502854320
  N        11.2908542628        1.3290861003        7.1326805297
  N        12.5454124797        3.3812342600        7.0234820415
  N        13.6846803121        1.3154179894        7.1813487585
  N         5.2769662667        7.5176988040        7.7674101884
  N         4.0746120320        9.5553010839        7.9340498579
  N         0.5705751730       11.6545429610        7.6080233472
  N         1.7586294162        9.5326966604        7.8745253705
  N         2.8876894470        7.5373275109        7.6101535594
  N         4.0905631303        5.5669338414        7.4483645220
  N         1.7781294901        5.5218696033        7.1316639892
  N         0.6310938011        7.5296400176        7.3480969008
