      56
 i =      112, time =      112.000, E =      -152.8190955410
  C         0.5655055795        0.6636368305        7.4406185317
  C         1.6421859018        2.6773408419        7.1897461302
  C         5.3565429609        0.6946181071        7.2969064672
  C         4.2868239333        2.6493030230        7.3064243811
  C         7.6983201063        0.7327797572        7.6186637745
  C         6.5177022558        2.7214645315        7.4909345953
  C         8.8001761468        2.7178778173        7.5860527187
  C        12.4356590811        0.6267435279        7.1715664074
  C        11.3409638447        2.6746772849        7.2220347506
  C        13.6288978541        2.6768820559        6.9870192639
  C         2.9552834760        4.9072500320        7.4100944497
  C         1.7964766746        6.8895234715        7.3345902598
  C         0.6768682803        8.8785344069        7.5276785733
  C         4.1662524762        6.8056081784        7.6160906161
  C         2.9594983048        8.9058900120        7.7387560407
  C         5.2579347836        8.8449192859        7.7908667721
  C        10.1561539483        4.8564054541        7.6057982385
  C         8.9492686984        6.8398578047        7.7150195124
  C         7.8038947940        8.8887459393        7.7251382105
  C         6.5882594368       11.0835068562        7.5873918955
  C        11.3443499340        6.8395085358        7.8191896546
  C        10.1075945545        8.8988923008        7.5781134830
  C        12.3849463065        8.8361252786        7.6882551633
  C        13.6871613639       11.0633467951        7.4615405772
  N         5.4149677617       11.7019935400        7.3277642225
  N         6.5373906335        9.6230208868        7.8200847555
  N         7.8045782038        7.6074361630        7.7895134602
  N         8.9854963561        5.4959678464        7.7065890897
  N         7.7307842692       11.7611962809        7.7025865562
  N         8.9558973719        9.5770650185        7.6281997816
  N        10.1558740832        7.4971908574        7.6873827356
  N        11.3574393896        5.5321152864        7.5910578323
  N        11.2656953783        9.5317237548        7.4908008484
  N        12.4708416320        7.5619953016        7.9935937692
  N        13.6752763831        9.5863428699        7.5464902121
  N        12.4987537206       11.6283350738        7.1988178283
  N         0.5763778071        3.3244965782        6.8887494991
  N         1.6903967168        1.3868544271        7.5633284930
  N         2.9767179025        3.3788586831        7.3031504020
  N         5.3957437586        3.3863127709        7.3545156003
  N         7.6516095440        3.3691370023        7.4392118569
  N         8.8192044740        1.4196775967        7.6845942278
  N         6.5169601414        1.3633355545        7.5103543601
  N         4.2029726475        1.3381188292        7.2404201937
  N        10.0978636758        3.4649666225        7.4681898630
  N        11.2913584985        1.3285162163        7.2101387133
  N        12.4608304024        3.3719379612        7.0128462262
  N        13.6186015359        1.2778996325        7.1508145685
  N         5.3325027532        7.5156595535        7.7010490207
  N         4.0982576366        9.5165242540        7.9208596811
  N         0.5678637921       11.6931452917        7.6446019965
  N         1.7703211958        9.4535848848        7.9252169222
  N         2.9706973716        7.5210932978        7.4452659276
  N         4.1356482325        5.4536779162        7.6139230902
  N         1.8305070943        5.5321532945        7.2789747798
  N         0.6727375427        7.5748966768        7.2502468879
