      56
 i =      113, time =      113.000, E =      -152.8188905244
  C         0.5637245887        0.6659548447        7.4373300068
  C         1.6466360428        2.6825204892        7.1850312998
  C         5.3599860940        0.6950834492        7.2890204211
  C         4.2813326264        2.6509377025        7.3041783727
  C         7.7052276555        0.7309209444        7.6174767259
  C         6.5239167448        2.7205154187        7.4869336801
  C         8.8034393030        2.7177903804        7.5831992189
  C        12.4442346232        0.6296770590        7.1692603185
  C        11.3358703294        2.6654013034        7.2193723380
  C        13.6227733530        2.6721437233        6.9892520425
  C         2.9575750660        4.9107276075        7.4024113264
  C         1.7929802634        6.8884672078        7.3383047239
  C         0.6708649077        8.8794390060        7.5282655841
  C         4.1636193055        6.8009552259        7.6163086381
  C         2.9638538411        8.9044326180        7.7378320597
  C         5.2660734030        8.8501115609        7.7920850845
  C        10.1571927158        4.8515326064        7.6052419577
  C         8.9480718925        6.8460573031        7.7151369939
  C         7.8035176720        8.8923204657        7.7271625266
  C         6.5848841143       11.0774297975        7.5931467632
  C        11.3454388164        6.8356810015        7.8215476885
  C        10.1031869327        8.8993747925        7.5770759647
  C        12.3882047866        8.8431065760        7.6866995137
  C        13.6890453728       11.0672866037        7.4689290258
  N         5.4155245456       11.7053306760        7.3316465282
  N         6.5351690163        9.6234178207        7.8200581239
  N         7.8106754539        7.6111139788        7.7902596243
  N         8.9832699530        5.4969984331        7.7090805660
  N         7.7235548629       11.7555433301        7.7052616505
  N         8.9469029599        9.5769918080        7.6314132151
  N        10.1610019929        7.4969845336        7.6893112621
  N        11.3548350353        5.5320230799        7.5919040683
  N        11.2699374587        9.5325678734        7.4912019966
  N        12.4659309907        7.5642521206        7.9912981626
  N        13.6721069169        9.5844481989        7.5505868200
  N        12.5001471118       11.6267981728        7.1979954597
  N         0.5777865374        3.3188459354        6.8854866755
  N         1.6929769438        1.3844098244        7.5621994998
  N         2.9826267934        3.3820844870        7.3021481681
  N         5.3932663609        3.3833329148        7.3512338634
  N         7.6575448413        3.3579416136        7.4394981014
  N         8.8210366220        1.4264068283        7.6869420470
  N         6.5175565043        1.3670107873        7.5131239163
  N         4.2079551418        1.3381719591        7.2387087628
  N        10.1034600705        3.4730019988        7.4715700147
  N        11.2906154459        1.3346140353        7.2080347328
  N        12.4614603333        3.3619030148        7.0134470376
  N        13.6219851995        1.2756850276        7.1490830273
  N         5.3291257570        7.5223971128        7.7048205611
  N         4.1012245595        9.5184768338        7.9238472261
  N         0.5591484671       11.6926043583        7.6418126475
  N         1.7685948921        9.4516054559        7.9289998043
  N         2.9666516814        7.5191375578        7.4457537820
  N         4.1319970390        5.4544813114        7.6115764401
  N         1.8242704403        5.5291025028        7.2745004555
  N         0.6690257620        7.5737480062        7.2513537301
