      56
 i =      119, time =      119.000, E =      -152.8263322213
  C         0.5811268340        0.6839128346        7.4234879147
  C         1.7186372286        2.6946698081        7.1771345591
  C         5.3771740439        0.6819325127        7.2570545227
  C         4.2208587379        2.6830499474        7.2919689067
  C         7.7438347795        0.7111904110        7.6158415856
  C         6.5431644621        2.7262155826        7.4543338319
  C         8.8416244088        2.7404024039        7.5571046697
  C        12.4694910956        0.6304047505        7.1554515971
  C        11.3009367816        2.6350193112        7.2086283907
  C        13.5960651146        2.6583085643        7.0006707475
  C         2.9649078661        4.8851012714        7.3525620635
  C         1.7610451700        6.8623124854        7.3538175100
  C         0.6306439880        8.8714477251        7.5411135028
  C         4.1599832934        6.7920583974        7.6148095370
  C         2.9795112190        8.8822229585        7.7392556444
  C         5.3127963768        8.8839917587        7.7988036355
  C        10.1641705660        4.8569811969        7.5983256633
  C         8.9412286782        6.8720208937        7.7193953789
  C         7.7954103829        8.9286995164        7.7433930588
  C         6.5442604054       11.0408167682        7.6285873918
  C        11.3564668366        6.8179929275        7.8243813042
  C        10.0861426343        8.9069742386        7.5811604726
  C        12.4226424212        8.8918005729        7.6753643982
  C        13.6639799557       11.0463465319        7.5032610915
  N         5.4205126461       11.7041006310        7.3535316869
  N         6.5258414286        9.6242324705        7.8104114548
  N         7.8445292189        7.5923978176        7.7928521710
  N         8.9695314977        5.5144655482        7.7251430172
  N         7.6873080519       11.7100770778        7.7231656798
  N         8.9130470299        9.5783670553        7.6444444484
  N        10.1683935875        7.5159819120        7.7000066702
  N        11.3299427522        5.5143576077        7.6089473806
  N        11.2846065797        9.5361142554        7.4926564413
  N        12.4398567472        7.5724947336        7.9716320719
  N        13.6490538963        9.5832975544        7.5776278825
  N        12.5051571816       11.6310396646        7.1974184195
  N         0.5602064950        3.2926714452        6.8637739255
  N         1.6985025715        1.3734171793        7.5472159961
  N         3.0034419263        3.4119167990        7.2915053977
  N         5.3722523469        3.3625595539        7.3334191900
  N         7.7054327486        3.3264507731        7.4421990721
  N         8.8527186923        1.4428231621        7.7049942302
  N         6.5254147428        1.3857548306        7.5257924154
  N         4.2330177947        1.3412396585        7.2229414504
  N        10.1347285591        3.4795902206        7.4872387679
  N        11.2901592892        1.3578062309        7.1959749220
  N        12.4726927523        3.2950612553        7.0169496594
  N        13.6446288557        1.2961547404        7.1383836259
  N         5.2959059873        7.5539154434        7.7267416110
  N         4.1300997014        9.5354092608        7.9396457749
  N         0.5332891558       11.6935663571        7.6300666214
  N         1.7713267235        9.4625916600        7.9464475396
  N         2.9689892342        7.5156838613        7.4575207647
  N         4.1223049773        5.4846816360        7.5991234632
  N         1.7809065224        5.5164848087        7.2473152246
  N         0.6368728705        7.5615765342        7.2536361253
