      56
 i =       51, time =       51.000, E =      -152.8227590959
  C         0.5986420915        0.7104614024        7.5003836117
  C         1.7226392481        2.7499439861        7.4406846242
  C         5.3047856706        0.6204876705        7.4517395175
  C         4.1693883624        2.7163244581        7.4881341871
  C         7.7075981546        0.6429059875        7.5813666900
  C         6.5225041730        2.7173440697        7.5050358849
  C         8.8175604964        2.6609783679        7.4689187351
  C        12.3994483457        0.6439645083        7.3620297156
  C        11.2510622490        2.6952238282        7.2937967897
  C        13.5755458915        2.8001138687        7.2132282894
  C         2.9589992934        4.8464852492        7.4728588207
  C         1.8144366913        6.8908552738        7.4063199776
  C         0.6655159316        8.9565542189        7.4889071967
  C         4.2124007656        6.7789632889        7.6113838155
  C         2.9724171084        8.9364732255        7.6850587027
  C         5.3656172813        8.8448164772        7.6040246456
  C        10.0931594471        4.7746887468        7.6302464389
  C         8.9154219677        6.8434490428        7.6662888597
  C         7.8120011227        8.9342954202        7.5578930564
  C         6.5517381414       10.9977814429        7.5217310931
  C        11.3423982031        6.7708211066        7.6864948175
  C        10.1220425684        8.8991726798        7.5823016908
  C        12.4765032101        8.8594993760        7.5123329979
  C        13.6795191659       11.0530846800        7.4311645072
  N         5.3462298589       11.6110851488        7.3818370066
  N         6.5607152214        9.6057178492        7.5239755213
  N         7.7939909861        7.5830281560        7.6634867978
  N         8.9488663315        5.4809408704        7.5503961000
  N         7.7274900729       11.6244848251        7.6756050612
  N         8.9993490699        9.5397947653        7.4911084407
  N        10.1511048528        7.4559491183        7.6765889857
  N        11.2530566256        5.4147103606        7.8184360994
  N        11.3136232554        9.4659420105        7.5672571639
  N        12.5038292194        7.5337973539        7.5183149426
  N        13.6876642769        9.6359536869        7.4837293985
  N        12.4966239123       11.6913679323        7.3867133517
  N         0.5742401956        3.4592678293        7.2501253820
  N         1.6947231311        1.4189439119        7.5763777213
  N         2.9576796162        3.4388291396        7.4859522198
  N         5.3512552292        3.3625058491        7.5493066315
  N         7.6664430366        3.3310405035        7.4284254348
  N         8.8435424612        1.3388322416        7.5268649935
  N         6.4985066744        1.3043254976        7.4649686035
  N         4.1216110554        1.3570675730        7.3814374032
  N        10.0625576334        3.3987307289        7.4160734167
  N        11.2744657305        1.3930996173        7.3270242101
  N        12.4376040370        3.4334474450        7.0943112991
  N        13.6041343320        1.3742924058        7.4088892126
  N         5.3502721317        7.5244708319        7.5536133631
  N         4.1933481977        9.5027235086        7.7077626912
  N         0.6137164888       11.6998160618        7.4965085308
  N         1.8037376792        9.6242821285        7.5934074575
  N         2.9926465404        7.5091874295        7.6574328911
  N         4.1678592057        5.4563611278        7.5556553291
  N         1.8562446059        5.5832475339        7.2987745129
  N         0.7305202237        7.6466393015        7.3613112233
