      56
 i =       80, time =       80.000, E =      -152.8333869253
  C         0.5913706959        0.7339914827        7.4762084590
  C         1.6837644958        2.7195037406        7.3567941504
  C         5.3455224957        0.6737423390        7.3650636664
  C         4.1587525922        2.6447253171        7.4106085540
  C         7.6913831807        0.6901356144        7.5980551770
  C         6.4503191660        2.7925819297        7.4480333877
  C         8.8237266477        2.7679316068        7.4656390634
  C        12.4730134929        0.6654259566        7.2482298850
  C        11.2943654605        2.6907140678        7.2300345387
  C        13.6171362760        2.7744620091        7.1017605447
  C         2.9747002945        4.9007405719        7.4403737709
  C         1.7973035616        6.8224520527        7.3532904074
  C         0.7501593868        8.8408476799        7.5144724796
  C         4.2023712979        6.8484457349        7.6015700030
  C         3.0592042979        8.9598975707        7.7382437990
  C         5.3837026422        8.8541681117        7.6848425950
  C        10.1184196793        4.8690110141        7.5564263556
  C         8.9569982011        6.8163356518        7.7059958647
  C         7.8098674442        8.8038144225        7.6635695770
  C         6.5165987894       10.9781483909        7.5498303152
  C        11.3028378369        6.8089860666        7.7404446161
  C        10.1394843114        8.9247474397        7.6035557387
  C        12.4479876971        8.7925584587        7.6210433113
  C        13.6064795114       11.0133123399        7.4447626317
  N         5.3703201293       11.6465892215        7.3484184057
  N         6.5841716127        9.5141633410        7.5749103053
  N         7.7821418090        7.4817275737        7.7534219529
  N         8.9358543663        5.4992461307        7.6452142346
  N         7.6700301987       11.6843879803        7.6850984610
  N         8.9564121178        9.4829548650        7.5669625301
  N        10.1370462599        7.5016486447        7.6762368406
  N        11.2761385740        5.4785438821        7.7464332368
  N        11.3071631119        9.5211856022        7.5105346008
  N        12.4662244780        7.4995745529        7.8011504493
  N        13.7343524910        9.5492977018        7.5079828828
  N        12.4793301983       11.7306905848        7.2519922464
  N         0.5426751128        3.4065831138        7.0278935234
  N         1.6743842705        1.4095826649        7.5906321231
  N         2.9289793870        3.4360059656        7.4122330013
  N         5.2805632267        3.3764981502        7.4722057921
  N         7.6479733754        3.4175156981        7.5105131567
  N         8.8330578314        1.4258108519        7.6422787513
  N         6.5195535509        1.3821361976        7.5209812284
  N         4.1313751821        1.2957423062        7.3141266045
  N        10.1101638329        3.4838806155        7.4155208196
  N        11.3222115388        1.3422198087        7.2960683966
  N        12.4501832482        3.3663668465        7.0158183384
  N        13.6429335761        1.3896128668        7.2647705978
  N         5.3443156097        7.5369450171        7.6444564877
  N         4.2377858278        9.5574456707        7.8683560632
  N         0.5095675465       11.7346057489        7.5536981296
  N         1.8626395531        9.5207492469        7.7457015116
  N         2.9993526681        7.5197632223        7.5341043245
  N         4.1827490579        5.5164859030        7.6348033599
  N         1.8044487976        5.5074234210        7.3216252565
  N         0.7299675920        7.5484920339        7.2263074741
