      56
 i =       56, time =       56.000, E =      -152.8246737100
  C         0.6312159583        0.7274007534        7.4831610272
  C         1.7047174757        2.7607985300        7.4177289107
  C         5.2943483085        0.6330798489        7.4169419039
  C         4.1924824726        2.6835329905        7.4842790990
  C         7.7051019951        0.6581027412        7.5977202364
  C         6.4922156556        2.7083071246        7.5290536694
  C         8.7955097452        2.6673602354        7.4934624959
  C        12.4094920535        0.6274530415        7.3392332559
  C        11.2413871627        2.7103103379        7.2769621606
  C        13.5841413688        2.8185875906        7.1963812833
  C         2.9565492973        4.8516273106        7.4606721844
  C         1.8187767332        6.8845861519        7.4146799503
  C         0.6853096474        8.9571821141        7.4644415025
  C         4.2137722835        6.7849676964        7.6368089224
  C         3.0060065734        8.9372217245        7.6755788283
  C         5.3791101005        8.8693503142        7.6170733075
  C        10.0907868743        4.7544954186        7.6364518528
  C         8.9252744136        6.8281187386        7.6801661332
  C         7.8165955951        8.8950865102        7.5610746506
  C         6.5454242840       11.0166674149        7.5213080430
  C        11.3624891148        6.7827202436        7.7261486037
  C        10.1377221091        8.8804045630        7.5727733977
  C        12.4931863128        8.8450162557        7.5143630002
  C        13.6652640365       11.0581674142        7.4387775047
  N         5.3447143482       11.6223660418        7.3906673884
  N         6.5522821616        9.6084131449        7.5041637910
  N         7.7844726929        7.5696925076        7.6935173857
  N         8.9487359607        5.4877130313        7.5546286878
  N         7.7128092976       11.6793442609        7.6855422245
  N         8.9711092982        9.5378496527        7.5189127545
  N        10.1574112416        7.4698465677        7.6758021991
  N        11.2548207657        5.4260699942        7.8103271432
  N        11.3172349024        9.4721658213        7.5618837910
  N        12.4949466631        7.5368875130        7.5533075261
  N        13.6608746983        9.6318458476        7.5051078581
  N        12.4836814338       11.6962971318        7.3574123385
  N         0.5675347044        3.4520893547        7.2105013806
  N         1.6966458260        1.4234866919        7.5907433278
  N         2.9773541794        3.4385116439        7.4903476216
  N         5.3341843772        3.3202359676        7.5263106437
  N         7.6691796857        3.3518598137        7.4223889956
  N         8.8286982579        1.3540241507        7.5290966554
  N         6.5201019214        1.3120118031        7.4649621057
  N         4.1511299924        1.3647173564        7.3715114515
  N        10.0376990061        3.3816326601        7.4015009441
  N        11.2830441396        1.4015795019        7.3230522477
  N        12.4464176455        3.4177558925        7.0677454170
  N        13.5976882911        1.3680319858        7.3913532210
  N         5.3525724701        7.5047290726        7.5684467060
  N         4.1898562631        9.5086158547        7.7501109761
  N         0.5984028908       11.6967709692        7.5019705213
  N         1.8504985302        9.5902702843        7.6284371815
  N         3.0008589345        7.5223789471        7.6413947333
  N         4.1174224988        5.4645887989        7.5550558117
  N         1.8910845606        5.5668149303        7.2964657942
  N         0.7022641615        7.6248384251        7.3350760013
