      56
 i =       94, time =       94.000, E =      -152.8339314022
  C         0.5392895681        0.6591419250        7.4824029491
  C         1.6904701673        2.7176631258        7.2908450920
  C         5.2744966475        0.6214795742        7.4060368851
  C         4.1281128166        2.7062612913        7.3525383967
  C         7.7286119947        0.7031340590        7.6319478486
  C         6.5110406160        2.8078265067        7.4698837240
  C         8.8145951743        2.7566003413        7.5273546201
  C        12.4196440360        0.6613552145        7.2135334930
  C        11.3330228198        2.6973068927        7.2539221675
  C        13.6183778361        2.7618094025        6.9981293790
  C         3.0104565289        4.8099376726        7.4779452777
  C         1.8574395206        6.8471029947        7.2974048532
  C         0.6805415709        8.8601041216        7.5507122613
  C         4.2030058938        6.8105616915        7.5861372345
  C         2.9852887128        8.8865101162        7.7684162667
  C         5.3078939059        8.8442938039        7.7470251035
  C        10.1474516996        4.8632587967        7.5551273921
  C         8.8953471085        6.8353929062        7.7186388596
  C         7.8272727127        8.8566767069        7.7101878703
  C         6.5894442254       11.0138375454        7.5522850225
  C        11.3425180426        6.8374646899        7.7423227286
  C        10.1287046915        8.8765489513        7.6271530487
  C        12.4770026229        8.8730804871        7.6650730502
  C        13.6717124294       10.9930008056        7.3965071483
  N         5.4088500526       11.6165702236        7.2934314037
  N         6.5846282718        9.5916959492        7.7195314956
  N         7.7736928982        7.4825150983        7.7618085432
  N         8.9887149335        5.4957463052        7.6832223500
  N         7.7227290579       11.6766639771        7.6711495455
  N         8.9436721545        9.5426040198        7.5712520946
  N        10.1175562498        7.5296684435        7.6731463110
  N        11.3071979213        5.5068527617        7.6679739703
  N        11.3379131777        9.4907447013        7.4929741858
  N        12.4598766270        7.5240352819        7.9460222776
  N        13.6551881488        9.5590353758        7.5037380531
  N        12.5041135431       11.6054433760        7.2309342656
  N         0.5791791604        3.3890338726        6.9599691386
  N         1.6909284467        1.3962259237        7.5797700399
  N         2.9385922372        3.4192004985        7.3380257822
  N         5.2675686251        3.3965199261        7.4206103565
  N         7.6778042012        3.4746698511        7.4927845774
  N         8.8368066169        1.4415352519        7.6673726080
  N         6.4741046947        1.4002310261        7.4909520031
  N         4.1647377811        1.3590736157        7.2707601799
  N        10.0998415717        3.3990860220        7.4252835323
  N        11.2752493177        1.3844218891        7.2542225188
  N        12.4497738590        3.4007047767        7.0122082542
  N        13.6217302456        1.3852277917        7.1966267963
  N         5.3370602423        7.5129782754        7.6623430351
  N         4.1687499263        9.5179963100        7.8797235756
  N         0.5723784810       11.6634642749        7.6314068809
  N         1.8062580888        9.5729808036        7.8338360534
  N         3.0313056793        7.5471715875        7.4783501454
  N         4.1312630610        5.4880607707        7.6415912565
  N         1.8488238633        5.5080655946        7.3328013766
  N         0.6895488094        7.5596795055        7.2085791844
