      56
 i =       68, time =       68.000, E =      -152.8273379961
  C         0.5629832225        0.7074628849        7.4567236897
  C         1.6641183358        2.7547452861        7.3835073282
  C         5.3270043287        0.6515903573        7.3510774527
  C         4.1869411506        2.6317718946        7.4592496534
  C         7.7023200278        0.7032080459        7.6002819548
  C         6.5069315190        2.6922231449        7.5136027960
  C         8.7635444032        2.7039064885        7.4962574390
  C        12.4524608072        0.7389690447        7.2839248863
  C        11.3453406879        2.6946114695        7.2267302048
  C        13.6378596928        2.7577893192        7.1770421679
  C         3.0024564727        4.8665613533        7.4378806703
  C         1.8199983758        6.8733536622        7.4173414280
  C         0.7708757753        8.8815163181        7.4527382346
  C         4.1930183016        6.8618611930        7.6462901786
  C         3.0802671595        8.8864598623        7.6721234180
  C         5.2964580760        8.8246370567        7.6505204736
  C        10.0826420714        4.8822279973        7.6170602449
  C         8.9384011109        6.8132976452        7.6967010647
  C         7.8368261223        8.8122443765        7.5955156018
  C         6.5240989519       11.0731475773        7.5332945906
  C        11.3432330696        6.7966712238        7.7660673360
  C        10.1491178265        8.8548335726        7.5695118495
  C        12.4308079453        8.8281345886        7.5479789554
  C        13.6236278633       11.0697194854        7.4601333288
  N         5.3587283318       11.6864922221        7.3955409160
  N         6.5775105768        9.5746142249        7.4973651673
  N         7.8107461487        7.4676483444        7.7432453808
  N         8.9316790238        5.4952819389        7.5891782159
  N         7.6486397335       11.7096650447        7.6931101342
  N         8.9674430026        9.5236011554        7.5616321690
  N        10.1410978884        7.5107086704        7.6748318479
  N        11.2851730230        5.4671546725        7.7815423350
  N        11.3065794264        9.5425805829        7.5392196948
  N        12.4855566153        7.4415804895        7.6691421012
  N        13.6923958889        9.6014422913        7.5234434478
  N        12.4467452326       11.6561459418        7.2936388752
  N         0.5282681626        3.4123031884        7.1122130274
  N         1.7331617431        1.4573558303        7.6057160702
  N         2.9475000397        3.4095284153        7.4720842375
  N         5.3266492526        3.3235440049        7.4925558020
  N         7.6163433385        3.4014068672        7.4530345057
  N         8.8335708948        1.3679521904        7.5755387891
  N         6.4900477300        1.3560851865        7.4937079636
  N         4.1961304004        1.2988741344        7.3496617815
  N        10.0216574257        3.3936741790        7.3973077701
  N        11.2993394947        1.3602709419        7.3194386218
  N        12.4244122939        3.3848353409        7.0286292790
  N        13.6480130923        1.4186715877        7.3308439791
  N         5.3541298967        7.4914642541        7.6076522002
  N         4.2274387975        9.5657744163        7.8320943160
  N         0.5504888065       11.7331987055        7.5184727750
  N         1.9186239268        9.5458783446        7.7033239006
  N         3.0383947097        7.5602259247        7.5977804135
  N         4.1483929098        5.5337626618        7.5893991584
  N         1.8011891420        5.5382858464        7.2909345751
  N         0.6586910859        7.5559361295        7.2686764920
