      56
 i =       90, time =       90.000, E =      -152.8260773193
  C         0.5358563630        0.6826045214        7.4822599480
  C         1.6569495851        2.7432241852        7.3022806441
  C         5.2743904122        0.6395066942        7.4019650452
  C         4.1234004826        2.6843864308        7.3668209932
  C         7.7300797289        0.6880310194        7.6231714644
  C         6.4836273217        2.8220082291        7.4519418446
  C         8.8296348263        2.7617896740        7.5004718375
  C        12.4571908235        0.6793265141        7.2239189116
  C        11.3152810244        2.6851696252        7.2493295985
  C        13.6144688474        2.7736377665        7.0218178444
  C         3.0015958878        4.8602556268        7.4708347828
  C         1.8556121519        6.8425981446        7.3070332420
  C         0.6964866356        8.8623754331        7.5523095356
  C         4.2008983992        6.8180715216        7.5822827997
  C         3.0128069744        8.9192028051        7.7716086567
  C         5.3526325356        8.8643492831        7.7298569603
  C        10.1267493656        4.8410636713        7.5428668554
  C         8.9147240673        6.8246901393        7.7158383539
  C         7.8178979236        8.8200660881        7.7044287699
  C         6.5712630480       10.9724243423        7.5546021445
  C        11.3341431071        6.8327327504        7.7333726694
  C        10.1480602626        8.8835704373        7.6287427706
  C        12.4927020349        8.8484279425        7.6580881344
  C        13.6865055145       11.0094948249        7.4109181144
  N         5.3992344641       11.6109601888        7.3023071414
  N         6.5926850832        9.5634003757        7.6773649331
  N         7.7626854779        7.5093382819        7.7562846882
  N         8.9809337631        5.4951339472        7.6767967368
  N         7.7031057817       11.6657233492        7.6719875404
  N         8.9166005225        9.5261509170        7.5663200354
  N        10.1302796734        7.5245643650        7.6739307529
  N        11.2951827212        5.5001058934        7.6953044729
  N        11.3409132248        9.4902122118        7.4959759699
  N        12.4478721972        7.5323225297        7.9080404371
  N        13.6648051554        9.5420550979        7.5013143755
  N        12.5017259685       11.6296928567        7.2364142354
  N         0.6041745208        3.3873010763        6.9839665494
  N         1.6987436713        1.3944957967        7.5852908212
  N         2.9469112334        3.4366763399        7.3570970175
  N         5.2433317966        3.3930171439        7.4379124490
  N         7.6897224680        3.4567256923        7.5088042259
  N         8.8322205070        1.4618712546        7.6646745236
  N         6.4941922821        1.4047772961        7.5022279785
  N         4.1522418868        1.3551103071        7.2827354767
  N        10.1186315588        3.4395839889        7.4228824592
  N        11.2838488911        1.3919475155        7.2658194481
  N        12.4344803677        3.3854519337        7.0143045779
  N        13.6192687352        1.3727605444        7.2152259491
  N         5.3430569772        7.5317686685        7.6593483105
  N         4.1971600911        9.5227579596        7.8755600666
  N         0.5240048941       11.6644344847        7.6059494233
  N         1.8100335749        9.5618612812        7.8031277253
  N         3.0097852461        7.5306199676        7.4896064733
  N         4.1257321206        5.4711760585        7.6417850995
  N         1.8548002057        5.4781173971        7.3372491277
  N         0.7035553448        7.5574892739        7.2066068616
