      56
 i =       75, time =       75.000, E =      -152.8292468818
  C         0.5783899777        0.7190168889        7.4665231523
  C         1.6959382762        2.7188526132        7.3762251335
  C         5.3689285700        0.6633742072        7.3508815893
  C         4.1673820440        2.6414154817        7.4332521004
  C         7.6882837586        0.7059247674        7.5943792220
  C         6.4902161918        2.7484826083        7.4722698259
  C         8.7932815306        2.7456447928        7.4733050720
  C        12.4587098866        0.6996377842        7.2608063813
  C        11.3208886001        2.6867550615        7.2226916126
  C        13.6238728328        2.7528886725        7.1412190356
  C         2.9919463365        4.8810636990        7.4340362570
  C         1.7940968244        6.8339962008        7.3836744703
  C         0.7705885099        8.8418113238        7.4839263469
  C         4.1983602471        6.8621283048        7.6217656520
  C         3.0755107214        8.9298979069        7.7062673760
  C         5.3384352323        8.8231668913        7.6679935012
  C        10.1126501223        4.9002814835        7.5825218749
  C         8.9461868589        6.8259898910        7.7022176582
  C         7.8258749923        8.8144077335        7.6330752419
  C         6.5136425743       11.0276314408        7.5436086363
  C        11.3060274783        6.7954359695        7.7539395972
  C        10.1210950084        8.9127486404        7.5859347745
  C        12.4223359732        8.8100361806        7.5887496611
  C        13.5854078752       11.0318837660        7.4557070666
  N         5.3613383330       11.6777184577        7.3731998561
  N         6.5805202593        9.5323442266        7.5331983898
  N         7.8095884511        7.4428822513        7.7529959864
  N         8.9230988861        5.4974559032        7.6217774022
  N         7.6523527679       11.6929223143        7.6906666084
  N         8.9847455127        9.4858654446        7.5679682868
  N        10.1358994825        7.5005602837        7.6764223744
  N        11.2786096697        5.4755805087        7.7628102556
  N        11.3034936782        9.5405193036        7.5218240127
  N        12.4820497177        7.4557350129        7.7462281882
  N        13.7363329745        9.5688896523        7.5159942500
  N        12.4613423552       11.7118053007        7.2660546579
  N         0.5143333255        3.4115284791        7.0570227404
  N         1.6942432531        1.4383588507        7.5961882386
  N         2.9237066837        3.4165223819        7.4398661275
  N         5.3090993723        3.3592221967        7.4822153257
  N         7.6117956794        3.4087074734        7.4898137931
  N         8.8381398741        1.3927324896        7.6175695355
  N         6.4965883708        1.3692471550        7.5139862189
  N         4.1516274418        1.2767571069        7.3299246376
  N        10.0732141582        3.4525386266        7.4079639257
  N        11.3214855902        1.3354954409        7.3088958481
  N        12.4493170392        3.3724822330        7.0183706163
  N        13.6619025125        1.4207970362        7.2912299222
  N         5.3455883156        7.5206225861        7.6309517341
  N         4.2415542426        9.5738431980        7.8590968541
  N         0.5314924924       11.7559368141        7.5358078623
  N         1.8963506461        9.5247129486        7.7287377370
  N         3.0199112865        7.5355658728        7.5619297583
  N         4.1911129409        5.5471460194        7.6202135526
  N         1.7746254527        5.5365260513        7.3057827966
  N         0.7049671629        7.5450364897        7.2419187327
