      56
 i =       87, time =       87.000, E =      -152.8188992184
  C         0.5498492151        0.7048656540        7.4815562486
  C         1.6473244566        2.7461598045        7.3151800373
  C         5.2868310683        0.6556718978        7.3930600156
  C         4.1332463198        2.6659894337        7.3788085750
  C         7.7211939610        0.6812851284        7.6149537799
  C         6.4598661134        2.8234256843        7.4430697483
  C         8.8367503530        2.7674816530        7.4838246960
  C        12.4756158990        0.6798321563        7.2314403760
  C        11.3017745066        2.6851331369        7.2442105986
  C        13.6148923025        2.7801546410        7.0434838125
  C         2.9855556363        4.8907763814        7.4615605440
  C         1.8418107734        6.8358106221        7.3178266946
  C         0.7122966527        8.8589852447        7.5471988721
  C         4.2007532927        6.8268797972        7.5836324208
  C         3.0299370688        8.9428242924        7.7681855563
  C         5.3797026291        8.8738066704        7.7160676784
  C        10.1174081253        4.8345724746        7.5395930058
  C         8.9337397834        6.8155418903        7.7129611202
  C         7.8095871441        8.7996187426        7.6966281195
  C         6.5522334334       10.9553285159        7.5547833069
  C        11.3247897162        6.8285187052        7.7312868636
  C        10.1580126195        8.8963544371        7.6248616569
  C        12.4887131622        8.8210376931        7.6517233139
  C        13.6779575830       11.0150271330        7.4225459533
  N         5.3907574676       11.6141931106        7.3132869751
  N         6.5931130349        9.5404913091        7.6457150004
  N         7.7594947117        7.5221215313        7.7538017638
  N         8.9699880019        5.4966183175        7.6699447048
  N         7.6924939849       11.6679017644        7.6748969985
  N         8.9131108990        9.5117130304        7.5650195381
  N        10.1360717495        7.5177691154        7.6746509249
  N        11.2876251052        5.4929625388        7.7135067630
  N        11.3319599952        9.4951738526        7.4991145994
  N        12.4466218674        7.5349227242        7.8769347657
  N        13.6846067701        9.5376676294        7.5012296250
  N        12.4977224453       11.6622614591        7.2401295614
  N         0.6028287916        3.3897081710        6.9988573074
  N         1.6939014518        1.3942954202        7.5876715027
  N         2.9463425963        3.4447109520        7.3728372519
  N         5.2422605933        3.3898321465        7.4499146354
  N         7.6886862469        3.4421764653        7.5158699219
  N         8.8295438983        1.4628715808        7.6611267415
  N         6.5111957667        1.4018802668        7.5110345090
  N         4.1415051742        1.3429991738        7.2920057482
  N        10.1265293523        3.4675397117        7.4215282897
  N        11.2959228599        1.3818368037        7.2747381022
  N        12.4320962515        3.3756377030        7.0151306236
  N        13.6193574194        1.3660889474        7.2297050911
  N         5.3453656185        7.5396591031        7.6564257433
  N         4.2141406037        9.5297865647        7.8735456996
  N         0.5010508885       11.6770189518        7.5877240853
  N         1.8189146632        9.5467387112        7.7821553035
  N         2.9975831456        7.5211408981        7.5003464829
  N         4.1362726462        5.4712053761        7.6414712364
  N         1.8523237152        5.4702715684        7.3367741036
  N         0.7166292613        7.5560506233        7.2094056719
