      56
 i =       71, time =       71.000, E =      -152.8241079355
  C         0.5621895773        0.7073416469        7.4590789972
  C         1.6806929855        2.7371457191        7.3819922111
  C         5.3530723214        0.6534537520        7.3475417632
  C         4.1765333724        2.6361713189        7.4493412371
  C         7.6964139187        0.7095787405        7.5968738719
  C         6.5109593005        2.7117143619        7.4968216771
  C         8.7714153813        2.7206542529        7.4866324251
  C        12.4539843176        0.7325019265        7.2731131875
  C        11.3430992115        2.6884207258        7.2222499974
  C        13.6332406501        2.7468890505        7.1654862226
  C         3.0020793685        4.8696685060        7.4347577471
  C         1.8086389328        6.8566036582        7.4058056433
  C         0.7764129519        8.8600640409        7.4631189461
  C         4.1934944262        6.8670167083        7.6374410291
  C         3.0825131969        8.8983640749        7.6833628144
  C         5.3047569766        8.8160065095        7.6575405192
  C        10.0954198505        4.9005837063        7.6038739429
  C         8.9382979945        6.8222694679        7.6992397555
  C         7.8354144442        8.8130245938        7.6099338692
  C         6.5196352569       11.0616368886        7.5378189716
  C        11.3248896435        6.7939051114        7.7631290444
  C        10.1329389771        8.8798190781        7.5747805540
  C        12.4195777696        8.8234584953        7.5636361939
  C        13.6014879783       11.0556531097        7.4600990240
  N         5.3590830406       11.6904465585        7.3883863652
  N         6.5793271506        9.5572754650        7.5087799724
  N         7.8171263542        7.4450647844        7.7490742980
  N         8.9255579939        5.4957972707        7.6023175247
  N         7.6449176462       11.7012193773        7.6927489507
  N         8.9799408594        9.5062334551        7.5657666461
  N        10.1377498584        7.5065528616        7.6756662846
  N        11.2840561087        5.4725244627        7.7739414661
  N        11.3051677621        9.5467327736        7.5318998542
  N        12.4864523435        7.4376452200        7.7014303130
  N        13.7148412390        9.5878645187        7.5213567781
  N        12.4499237326       11.6752861785        7.2809416707
  N         0.5164628062        3.4115892264        7.0874496189
  N         1.7204422640        1.4549882893        7.6023447296
  N         2.9337283258        3.4079964216        7.4599191382
  N         5.3223342273        3.3395545978        7.4881669689
  N         7.6048411638        3.4047511731        7.4684556156
  N         8.8372861367        1.3748946776        7.5933653442
  N         6.4856416220        1.3623328314        7.5028783456
  N         4.1791436619        1.2828721641        7.3418879677
  N        10.0406641053        3.4172449042        7.4013561173
  N        11.3096011664        1.3466426765        7.3161644454
  N        12.4343931180        3.3796145067        7.0232630146
  N        13.6605617724        1.4281373923        7.3138558852
  N         5.3502726633        7.5027966964        7.6178317195
  N         4.2364741785        9.5744082163        7.8456897913
  N         0.5440435275       11.7485424245        7.5247952612
  N         1.9138194512        9.5366006392        7.7153201398
  N         3.0347328120        7.5523315567        7.5836128301
  N         4.1726080267        5.5476735051        7.6031615974
  N         1.7795172338        5.5410330894        7.2953754737
  N         0.6747552336        7.5484369485        7.2562383393
