      56
 i =       95, time =       95.000, E =      -152.8320790517
  C         0.5436433169        0.6555973176        7.4821258534
  C         1.6982400196        2.7089305270        7.2882468265
  C         5.2770415688        0.6191672555        7.4052570282
  C         4.1339786352        2.7092952344        7.3493798695
  C         7.7256589736        0.7071210860        7.6333940147
  C         6.5148164091        2.8026392409        7.4746039531
  C         8.8108273622        2.7558591311        7.5341843720
  C        12.4101854987        0.6550985279        7.2110049910
  C        11.3367129396        2.7019945034        7.2544647314
  C        13.6207380194        2.7587458292        6.9935180891
  C         3.0092607297        4.7998059636        7.4784167809
  C         1.8551424799        6.8476279737        7.2960713215
  C         0.6781953572        8.8588579234        7.5491869624
  C         4.2036211675        6.8100263569        7.5878492774
  C         2.9782913821        8.8803234426        7.7667078381
  C         5.2970895286        8.8394260776        7.7508489873
  C        10.1525528506        4.8694157108        7.5590429607
  C         8.8935191364        6.8361904718        7.7190410088
  C         7.8282764066        8.8649688459        7.7110023393
  C         6.5918523907       11.0253638208        7.5515484785
  C        11.3437857359        6.8388171886        7.7455402094
  C        10.1245428298        8.8769172517        7.6255914668
  C        12.4700061369        8.8749715619        7.6669613014
  C        13.6663473431       10.9889975325        7.3940439199
  N         5.4107755584       11.6194141500        7.2923923718
  N         6.5816852811        9.5972154549        7.7294069291
  N         7.7761882414        7.4778739961        7.7634516021
  N         8.9896176968        5.4963779383        7.6844040068
  N         7.7284299866       11.6821822717        7.6715714286
  N         8.9528155255        9.5458847331        7.5730583948
  N        10.1142179633        7.5300173217        7.6730237447
  N        11.3106253805        5.5079690792        7.6611018948
  N        11.3337598088        9.4921227725        7.4923824732
  N        12.4640050715        7.5224554373        7.9541739923
  N        13.6560625727        9.5646045749        7.5046654904
  N        12.5041082278       11.6035432956        7.2293844190
  N         0.5710994535        3.3892212068        6.9540225158
  N         1.6871680443        1.3968187007        7.5781149453
  N         2.9356018777        3.4144246390        7.3339101261
  N         5.2768492564        3.3973148029        7.4163660356
  N         7.6735217634        3.4778402322        7.4881696533
  N         8.8375727275        1.4342642894        7.6678390543
  N         6.4712931220        1.3976191367        7.4888290307
  N         4.1669327168        1.3582785363        7.2680417872
  N        10.0948220299        3.3909143378        7.4261545187
  N        11.2749414948        1.3789364133        7.2514536980
  N        12.4543982521        3.4042988978        7.0116139644
  N        13.6217514886        1.3866955192        7.1924292076
  N         5.3354838464        7.5075628887        7.6630809043
  N         4.1612520014        9.5173637100        7.8810672250
  N         0.5841076639       11.6649901236        7.6370438690
  N         1.8061415473        9.5727695129        7.8412557769
  N         3.0358937350        7.5507526133        7.4759589970
  N         4.1350750191        5.4929693274        7.6413633693
  N         1.8472713180        5.5168572158        7.3310556247
  N         0.6873026852        7.5605185582        7.2100393744
