      56
 i =       66, time =       66.000, E =      -152.8319929732
  C         0.5714681234        0.7111530006        7.4573176931
  C         1.6565196616        2.7645269081        7.3850671290
  C         5.3092983826        0.6521197822        7.3566392143
  C         4.1946111920        2.6307848125        7.4649113354
  C         7.7046290420        0.6952546639        7.6024736363
  C         6.4978169492        2.6856701479        7.5228782259
  C         8.7629349280        2.6947707148        7.5011634522
  C        12.4498705876        0.7317443689        7.2920046683
  C        11.3367518113        2.6998841352        7.2322868649
  C        13.6373032252        2.7706220831        7.1820129449
  C         2.9985914147        4.8662647915        7.4407637811
  C         1.8250408457        6.8816216706        7.4219774524
  C         0.7619950932        8.8976512751        7.4487139233
  C         4.1951274032        6.8532815271        7.6501688845
  C         3.0744338189        8.8875583593        7.6679165376
  C         5.3013227459        8.8347597929        7.6456492683
  C        10.0775241586        4.8620904402        7.6241503929
  C         8.9394441958        6.8078335906        7.6948128978
  C         7.8352714544        8.8151532662        7.5873392717
  C         6.5265883093       11.0729832066        7.5303145241
  C        11.3544973711        6.7982114078        7.7654834235
  C        10.1577291466        8.8441049003        7.5674888246
  C        12.4432979326        8.8295090773        7.5391962080
  C        13.6381965903       11.0750119604        7.4585664570
  N         5.3580928267       11.6781162532        7.3982134127
  N         6.5749189910        9.5843375009        7.4929578098
  N         7.8034570921        7.4885386392        7.7377856411
  N         8.9359763533        5.4952478166        7.5812886286
  N         7.6559293545       11.7150979001        7.6929055743
  N         8.9596004685        9.5327470235        7.5574739071
  N        10.1441603363        7.5107579106        7.6743828056
  N        11.2832178782        5.4619404923        7.7864909695
  N        11.3075765412        9.5351578175        7.5438649887
  N        12.4845554103        7.4524936972        7.6481481963
  N        13.6776538415        9.6094577502        7.5236041459
  N        12.4481288717       11.6510378808        7.3029035968
  N         0.5380009785        3.4145806126        7.1290773513
  N         1.7356850759        1.4547320036        7.6065788648
  N         2.9575733881        3.4137580254        7.4785800051
  N         5.3276106885        3.3137516606        7.4959940747
  N         7.6288131177        3.3973781384        7.4438327927
  N         8.8304429719        1.3654971958        7.5644717264
  N         6.4978007140        1.3500256539        7.4876163829
  N         4.2017643853        1.3132219253        7.3542482590
  N        10.0134214592        3.3816374401        7.3953957014
  N        11.2937611137        1.3701074263        7.3207262681
  N        12.4219273453        3.3888139065        7.0330030267
  N        13.6361870386        1.4079346569        7.3420300520
  N         5.3558946955        7.4865796089        7.6008540096
  N         4.2192137840        9.5566063198        7.8213308006
  N         0.5549352264       11.7218296768        7.5149378695
  N         1.9173427861        9.5515574710        7.6937794054
  N         3.0365540671        7.5608692529        7.6062169474
  N         4.1307907661        5.5202680234        7.5805395645
  N         1.8218700614        5.5368028966        7.2898099927
  N         0.6542220298        7.5636702619        7.2781244415
