      56
 i =       76, time =       76.000, E =      -152.8311157676
  C         0.5832813275        0.7231615036        7.4687173828
  C         1.6964921771        2.7166100604        7.3734616091
  C         5.3677682551        0.6663665939        7.3529892477
  C         4.1657415097        2.6422058937        7.4287839683
  C         7.6872902678        0.7032114169        7.5944411155
  C         6.4815173141        2.7582201919        7.4663905008
  C         8.7998970729        2.7514706294        7.4706083005
  C        12.4610498255        0.6900153243        7.2580464182
  C        11.3142111072        2.6874690607        7.2237251662
  C        13.6218740959        2.7571546911        7.1337453332
  C         2.9882757586        4.8850450752        7.4346414679
  C         1.7922093977        6.8297476363        7.3774418008
  C         0.7672743406        8.8396947602        7.4900229895
  C         4.1996280945        6.8596330027        7.6175022409
  C         3.0725556697        8.9380345082        7.7128688048
  C         5.3487989318        8.8283346600        7.6710283621
  C        10.1154642025        4.8959911797        7.5768590953
  C         8.9491894868        6.8248577692        7.7029390081
  C         7.8224886032        8.8135306362        7.6393478259
  C         6.5128795502       11.0171610245        7.5449850319
  C        11.3033983175        6.7973177613        7.7511166307
  C        10.1221209406        8.9183159425        7.5893322443
  C        12.4260327987        8.8057698312        7.5955111132
  C        13.5856817096       11.0264597069        7.4538986321
  N         5.3625762908       11.6720149334        7.3685286576
  N         6.5809651364        9.5268034887        7.5408422311
  N         7.8048353492        7.4478914413        7.7533956662
  N         8.9242227952        5.4979358407        7.6267773960
  N         7.6556815932       11.6912694244        7.6897930077
  N         8.9819045972        9.4829364099        7.5680254670
  N        10.1358832060        7.4998465812        7.6764868505
  N        11.2773849995        5.4759650433        7.7597548633
  N        11.3034422423        9.5372863199        7.5193494192
  N        12.4795911976        7.4636752098        7.7575995422
  N        13.7388683211        9.5643678179        7.5143661225
  N        12.4649474544       11.7199229226        7.2627473312
  N         0.5172514190        3.4111403696        7.0501909010
  N         1.6879445658        1.4323684298        7.5947304820
  N         2.9232879777        3.4202209124        7.4343585685
  N         5.3042757367        3.3634330384        7.4804879750
  N         7.6175667514        3.4100870558        7.4948314717
  N         8.8375010821        1.3987706055        7.6232911453
  N         6.5015301525        1.3713860951        7.5162303836
  N         4.1456417718        1.2783771121        7.3267257744
  N        10.0816406559        3.4607675704        7.4096518750
  N        11.3231918393        1.3347802395        7.3065691537
  N        12.4515262398        3.3707385044        7.0175639743
  N        13.6594007119        1.4155330052        7.2856583829
  N         5.3448791072        7.5247454899        7.6340235145
  N         4.2416442079        9.5715922103        7.8616062221
  N         0.5273973825       11.7543493194        7.5390841818
  N         1.8902684429        9.5225370095        7.7319740533
  N         3.0153069347        7.5314784294        7.5561885404
  N         4.1922944630        5.5431517392        7.6239041617
  N         1.7779588485        5.5326705698        7.3089357115
  N         0.7121286358        7.5451796151        7.2385843360
