      56
 i =       73, time =       73.000, E =      -152.8255604171
  C         0.5687285741        0.7117118216        7.4623784475
  C         1.6904397624        2.7264937909        7.3800159907
  C         5.3648026758        0.6576049723        7.3481414869
  C         4.1713003323        2.6391768381        7.4416996931
  C         7.6918796205        0.7093935970        7.5951654750
  C         6.5041604725        2.7292374302        7.4845729981
  C         8.7810595425        2.7331552666        7.4796990249
  C        12.4555083722        0.7183509784        7.2666946124
  C        11.3336711166        2.6865535615        7.2216570471
  C        13.6285131725        2.7471429444        7.1546008038
  C         2.9981572267        4.8743207375        7.4338145361
  C         1.8004978498        6.8446112234        7.3954901188
  C         0.7751725290        8.8491203597        7.4726604353
  C         4.1956588019        6.8658711917        7.6300040206
  C         3.0801798618        8.9130789313        7.6938939218
  C         5.3192562402        8.8166986174        7.6624810192
  C        10.1048249536        4.9039717323        7.5936100009
  C         8.9410579877        6.8257897595        7.7007670607
  C         7.8316452253        8.8143658483        7.6210065450
  C         6.5163376093       11.0467541983        7.5407593938
  C        11.3140650722        6.7935450274        7.7591035209
  C        10.1243240049        8.8977254674        7.5798056868
  C        12.4183974148        8.8177353333        7.5756722879
  C        13.5905031929       11.0438321278        7.4585003937
  N         5.3597512658       11.6864520137        7.3815596197
  N         6.5798981589        9.5446517321        7.5196874687
  N         7.8158827386        7.4394620793        7.7515313540
  N         8.9231094783        5.4965293217        7.6118441197
  N         7.6471699826       11.6966280198        7.6919745408
  N         8.9851358082        9.4947831671        7.5672911432
  N        10.1364555815        7.5031313610        7.6761328533
  N        11.2814946352        5.4745051308        7.7685726325
  N        11.3041860389        9.5451247883        7.5268700334
  N        12.4853057618        7.4435986825        7.7235973684
  N        13.7274748659        9.5783278995        7.5189679088
  N        12.4548609072       11.6932307422        7.2732031932
  N         0.5128846014        3.4117178171        7.0717335788
  N         1.7078301488        1.4484847539        7.5993154278
  N         2.9271597591        3.4108088068        7.4503675168
  N         5.3169093174        3.3498549557        7.4853247487
  N         7.6048593470        3.4065005685        7.4792206118
  N         8.8384050177        1.3824905170        7.6055800104
  N         6.4888889086        1.3656238075        7.5087278018
  N         4.1651847677        1.2773715151        7.3361128539
  N        10.0563587813        3.4349237549        7.4045703379
  N        11.3162774875        1.3396567192        7.3129557179
  N        12.4425566005        3.3761103564        7.0204852499
  N        13.6636052076        1.4274888108        7.3025130386
  N         5.3476532263        7.5117326240        7.6245048073
  N         4.2399836008        9.5759000994        7.8530615900
  N         0.5385399254       11.7547550826        7.5298861675
  N         1.9065629650        9.5302862912        7.7222262232
  N         3.0283830351        7.5442185782        7.5731174372
  N         4.1843882731        5.5504947413        7.6120350174
  N         1.7733941450        5.5406664451        7.3000394984
  N         0.6895094352        7.5458896064        7.2488474459
