      56
 i =       92, time =       92.000, E =      -152.8328742132
  C         0.5343447470        0.6692474463        7.4825176435
  C         1.6727604375        2.7329588193        7.2960846846
  C         5.2721775342        0.6291634803        7.4053692878
  C         4.1222266599        2.6967553081        7.3593808984
  C         7.7315023484        0.6951292165        7.6280673506
  C         6.4992577334        2.8164745798        7.4604351208
  C         8.8224199608        2.7586782241        7.5135767965
  C        12.4392285900        0.6723178892        7.2187196088
  C        11.3246063998        2.6895148745        7.2520516108
  C        13.6154233327        2.7679176639        7.0090226363
  C         3.0087535385        4.8344861720        7.4753874291
  C         1.8589788629        6.8455097269        7.3014178810
  C         0.6873802386        8.8620252324        7.5525797127
  C         4.2017611931        6.8133848563        7.5834978536
  C         2.9994293192        8.9019280690        7.7709334249
  C         5.3305076841        8.8546339559        7.7387451989
  C        10.1365876289        4.8510866410        7.5481094220
  C         8.9031442134        6.8311288784        7.7174492681
  C         7.8234368356        8.8383743445        7.7078788958
  C         6.5819395443       10.9914246707        7.5536647589
  C        11.3390025128        6.8350313904        7.7369920866
  C        10.1383432017        8.8783155089        7.6289414611
  C        12.4877803714        8.8638177742        7.6615451666
  C        13.6815213550       11.0017789742        7.4030916564
  N         5.4043737163       11.6124596707        7.2969400476
  N         6.5896140630        9.5785408648        7.6987484941
  N         7.7678987795        7.4953555370        7.7587870070
  N         8.9857791904        5.4950049446        7.6803739113
  N         7.7121019058       11.6688920680        7.6710646833
  N         8.9275230880        9.5349820637        7.5683070660
  N        10.1243425142        7.5278272199        7.6734956748
  N        11.3008756151        5.5039748772        7.6818591994
  N        11.3421133149        9.4894270772        7.4943311440
  N        12.4526515460        7.5281302354        7.9278838293
  N        13.6571921353        9.5491223603        7.5022445044
  N        12.5033732884       11.6142371319        7.2338072795
  N         0.5942250731        3.3880087301        6.9722069574
  N         1.6966987593        1.3952227885        7.5828250884
  N         2.9438355620        3.4285084225        7.3471357555
  N         5.2524199095        3.3948264913        7.4293027865
  N         7.6852045368        3.4664245085        7.5014928348
  N         8.8346514294        1.4540179872        7.6662326292
  N         6.4828142411        1.4037605731        7.4962034946
  N         4.1591110547        1.3587339101        7.2765982631
  N        10.1098828973        3.4184954143        7.4239044848
  N        11.2781317472        1.3914084383        7.2599456750
  N        12.4409392732        3.3930547245        7.0133615284
  N        13.6207312956        1.3796540882        7.2056763919
  N         5.3403026016        7.5232824112        7.6609041118
  N         4.1835290177        9.5198245711        7.8773928370
  N         0.5473531285       11.6621513730        7.6189550194
  N         1.8072584076        9.5694983395        7.8184343646
  N         3.0206073574        7.5389063130        7.4835843346
  N         4.1259731366        5.4781694590        7.6417910208
  N         1.8522802235        5.4912493275        7.3356315205
  N         0.6956614723        7.5583967901        7.2067605267
