      56
 i =       63, time =       63.000, E =      -152.8395161550
  C         0.5935020111        0.7194098498        7.4616987923
  C         1.6568785618        2.7723801167        7.3904256887
  C         5.2902323186        0.6514311084        7.3700094214
  C         4.2039424913        2.6359810609        7.4723353960
  C         7.7056290198        0.6807845417        7.6045684613
  C         6.4830517447        2.6857888794        7.5327608984
  C         8.7680430413        2.6838591489        7.5050866396
  C        12.4411709172        0.7047005404        7.3055455813
  C        11.3098159061        2.7075182103        7.2442014758
  C        13.6284372572        2.7926641061        7.1868034568
  C         2.9867860647        4.8659068216        7.4458878361
  C         1.8276094828        6.8881126427        7.4243712737
  C         0.7416030071        8.9219765660        7.4472209507
  C         4.2012629915        6.8336448521        7.6522628133
  C         3.0591211132        8.9010013206        7.6660696416
  C         5.3225550122        8.8521964913        7.6374983660
  C        10.0765582520        4.8236219288        7.6321119456
  C         8.9391280918        6.8051116435        7.6915350613
  C         7.8303970265        8.8283853490        7.5768090362
  C         6.5307068157       11.0622511430        7.5262088918
  C        11.3666314278        6.7976614932        7.7601874130
  C        10.1628600573        8.8414082604        7.5664906115
  C        12.4654548990        8.8312316046        7.5282798538
  C        13.6545480245       11.0758162853        7.4540050898
  N         5.3554317488       11.6603742650        7.3992052519
  N         6.5682744937        9.5959212143        7.4908331672
  N         7.7924164700        7.5216659821        7.7270930835
  N         8.9414283486        5.4949231246        7.5707004582
  N         7.6723731618       11.7187345558        7.6919238743
  N         8.9527124238        9.5407230497        7.5488294796
  N        10.1495108503        7.5042362314        7.6741751897
  N        11.2761730787        5.4520081402        7.7940289397
  N        11.3098046896        9.5176542144        7.5504252811
  N        12.4845416424        7.4786171808        7.6169540165
  N        13.6599183679        9.6193932358        7.5216205963
  N        12.4556010752       11.6559254870        7.3182617745
  N         0.5514924267        3.4223942777        7.1545815376
  N         1.7298026798        1.4463693793        7.6051493623
  N         2.9711344903        3.4228574538        7.4858382584
  N         5.3276435654        3.3032926005        7.5026279639
  N         7.6488019463        3.3872063946        7.4323860274
  N         8.8262156335        1.3632652065        7.5495997452
  N         6.5119874576        1.3379997906        7.4787937905
  N         4.1984834786        1.3366510401        7.3603614059
  N        10.0095615132        3.3709889086        7.3941247693
  N        11.2883104653        1.3842003867        7.3217078713
  N        12.4258484171        3.3961727172        7.0410545303
  N        13.6176505462        1.3903607762        7.3585469921
  N         5.3566434036        7.4846130583        7.5906094251
  N         4.2054172608        9.5399411316        7.8024697553
  N         0.5644482004       11.7072908946        7.5103127667
  N         1.9076879058        9.5601347357        7.6766081817
  N         3.0283037999        7.5542599958        7.6178661854
  N         4.1085319978        5.4981361373        7.5686993486
  N         1.8564172269        5.5384700635        7.2905458452
  N         0.6582314400        7.5795327550        7.2942934482
