      56
 i =       64, time =       64.000, E =      -152.8373376636
  C         0.5853482230        0.7165228531        7.4597935855
  C         1.6549234408        2.7708493638        7.3881556609
  C         5.2951422996        0.6521156919        7.3649322915
  C         4.2014285805        2.6331499745        7.4700092581
  C         7.7055646234        0.6856352806        7.6041074597
  C         6.4874581828        2.6845556623        7.5301176846
  C         8.7656498033        2.6871434644        7.5043141487
  C        12.4447353216        0.7155284127        7.3008918921
  C        11.3202615050        2.7051554352        7.2398477290
  C        13.6325175089        2.7854068754        7.1854726196
  C         2.9913945075        4.8662184552        7.4441044236
  C         1.8274185255        6.8867738143        7.4241635308
  C         0.7491608120        8.9141199890        7.4470951625
  C         4.1989579396        6.8408715020        7.6521153029
  C         3.0650135062        8.8953572391        7.6661374758
  C         5.3140087310        8.8464433254        7.6403154135
  C        10.0760141027        4.8370466622        7.6298537537
  C         8.9396348773        6.8050611737        7.6926928309
  C         7.8322550700        8.8226635065        7.5800771167
  C         6.5292022823       11.0670201865        7.5274882473
  C        11.3634344664        6.7983183802        7.7625632266
  C        10.1623757085        8.8404211724        7.5665578015
  C        12.4580341185        8.8305553822        7.5315912591
  C        13.6501043690       11.0764823667        7.4557802958
  N         5.3565763080       11.6666561501        7.3992663978
  N         6.5708245709        9.5924961044        7.4909523364
  N         7.7958294261        7.5109409856        7.7309547133
  N         8.9397906502        5.4951382516        7.5740250491
  N         7.6663908049       11.7184901508        7.6923450305
  N         8.9541373987        9.5388985862        7.5520189509
  N        10.1476956196        7.5073276956        7.6741683334
  N        11.2789826892        5.4555327136        7.7915168743
  N        11.3089319185        9.5241648809        7.5483221334
  N        12.4842474849        7.4689938705        7.6272168582
  N        13.6649238722        9.6164139798        7.5225990195
  N        12.4524700365       11.6526919175        7.3129906927
  N         0.5473971347        3.4191753613        7.1461524535
  N         1.7329667136        1.4495925881        7.6060060966
  N         2.9670543250        3.4196543198        7.4837791610
  N         5.3277054817        3.3059429169        7.5002014485
  N         7.6424154600        3.3911365279        7.4357999712
  N         8.8274460293        1.3639323003        7.5542396637
  N         6.5073392588        1.3422721218        7.4816376336
  N         4.2012010175        1.3289802147        7.3584394488
  N        10.0096089633        3.3734274706        7.3943005548
  N        11.2897235144        1.3797460904        7.3214798802
  N        12.4236086170        3.3935508639        7.0381680110
  N        13.6235646376        1.3960481737        7.3531410793
  N         5.3566575105        7.4844912943        7.5939975091
  N         4.2099644175        9.5456540550        7.8090622858
  N         0.5607971984       11.7115406367        7.5117655378
  N         1.9119811182        9.5571916929        7.6826677017
  N         3.0316419592        7.5573708622        7.6141206992
  N         4.1148447266        5.5053894942        7.5723438993
  N         1.8450649139        5.5372282724        7.2900264415
  N         0.6554895709        7.5737531778        7.2886958459
