      56
 i =       86, time =       86.000, E =      -152.8200675457
  C         0.5568158540        0.7119547473        7.4812295244
  C         1.6488233546        2.7439416898        7.3205974725
  C         5.2933543617        0.6604489685        7.3893586749
  C         4.1374798075        2.6608303020        7.3830501262
  C         7.7169434214        0.6804180291        7.6121592050
  C         6.4533831123        2.8219378352        7.4414494991
  C         8.8376603324        2.7691989148        7.4792942567
  C        12.4788380396        0.6774955114        7.2338824411
  C        11.2979873203        2.6862414724        7.2422974270
  C        13.6151658929        2.7814504233        7.0512842500
  C         2.9805402077        4.8974333934        7.4581608318
  C         1.8353900821        6.8331737453        7.3220328461
  C         0.7178200269        8.8568366498        7.5441680248
  C         4.2009849414        6.8300075522        7.5849831895
  C         3.0348575240        8.9491461297        7.7657310962
  C         5.3860566811        8.8748277260        7.7114129044
  C        10.1160032701        4.8354128845        7.5399050752
  C         8.9395568985        6.8134665519        7.7119330442
  C         7.8075349314        8.7959350216        7.6931791937
  C         6.5457636518       10.9532777649        7.5544981359
  C        11.3212749754        6.8266317785        7.7314626607
  C        10.1591670681        8.9013540057        7.6226947620
  C        12.4848000587        8.8126019657        7.6488921651
  C        13.6704229962       11.0150913734        7.4261362440
  N         5.3877785314       11.6168010274        7.3176493052
  N         6.5922909314        9.5336200097        7.6352971007
  N         7.7601303375        7.5223624625        7.7533398954
  N         8.9654560223        5.4972665662        7.6671889624
  N         7.6894014153       11.6698778956        7.6761814501
  N         8.9155253176        9.5067988116        7.5649706941
  N        10.1371032741        7.5151948735        7.6749004291
  N        11.2853437927        5.4904338326        7.7190114420
  N        11.3279338946        9.4977987058        7.5003820109
  N        12.4478031623        7.5338597567        7.8663249047
  N        13.6925704450        9.5377126003        7.5016077714
  N        12.4959207589       11.6745949827        7.2414357093
  N         0.5976539414        3.3916635015        7.0030840706
  N         1.6905628873        1.3947049632        7.5881638288
  N         2.9448401466        3.4458994610        7.3782677678
  N         5.2450456801        3.3885246986        7.4536215553
  N         7.6859515331        3.4377067167        7.5170265404
  N         8.8291645271        1.4603737121        7.6594737337
  N         6.5157936508        1.3998874734        7.5136055617
  N         4.1382644582        1.3372666043        7.2951084106
  N        10.1273322562        3.4746707731        7.4209979593
  N        11.3004115978        1.3763794902        7.2777658474
  N        12.4333460611        3.3730042124        7.0152640092
  N        13.6206689895        1.3659032641        7.2345709817
  N         5.3456182375        7.5409673559        7.6552068618
  N         4.2188446151        9.5329136908        7.8729743575
  N         0.4976118145       11.6837863614        7.5821776166
  N         1.8233612248        9.5415646380        7.7758461906
  N         2.9951514411        7.5191095183        7.5044543517
  N         4.1422501724        5.4744125454        7.6411975736
  N         1.8488973683        5.4713711255        7.3357442135
  N         0.7207470623        7.5553559096        7.2110754626
