      56
 i =       67, time =       67.000, E =      -152.8295006422
  C         0.5664840904        0.7090378818        7.4567917529
  C         1.6597022978        2.7600055735        7.3841512239
  C         5.3178491322        0.6518103238        7.3535375948
  C         4.1908081235        2.6309559606        7.4621736476
  C         7.7036625316        0.6995056709        7.6014259269
  C         6.5027330857        2.6882380261        7.5184879039
  C         8.7627955580        2.6991131600        7.4989143958
  C        12.4514269578        0.7365059630        7.2878870481
  C        11.3420682173        2.6972144030        7.2292623761
  C        13.6380485511        2.7638498614        7.1797657505
  C         3.0009385220        4.8663092721        7.4392644730
  C         1.8228484658        6.8778705384        7.4199797399
  C         0.7669294936        8.8895173174        7.4504222080
  C         4.1938354446        6.8580623011        7.6484616150
  C         3.0777842531        8.8860939020        7.6696919320
  C         5.2978612788        8.8294216794        7.6481187240
  C        10.0796402851        4.8728219736        7.6207923148
  C         8.9389548395        6.8103255947        7.6957761605
  C         7.8362586415        8.8132215150        7.5912818875
  C         6.5253703520       11.0738300411        7.5317868056
  C        11.3491065271        6.7975713326        7.7660489276
  C        10.1538469180        8.8486508429        7.5683548999
  C        12.4366918222        8.8289252097        7.5434132774
  C        13.6311646162       11.0728405997        7.4595028382
  N         5.3584941912       11.6827603482        7.3970885425
  N         6.5763833807        9.5796936141        7.4948452601
  N         7.8072302412        7.4777851680        7.7406692814
  N         8.9338758673        5.4952509251        7.5851342031
  N         7.6518551126       11.7125273665        7.6930499841
  N         8.9632945659        9.5285333426        7.5596957178
  N        10.1425635100        7.5111140531        7.6745840858
  N        11.2844824342        5.4646927775        7.7840259932
  N        11.3070542545        9.5393172428        7.5415759952
  N        12.4850154994        7.4462895588        7.6585726233
  N        13.6848373322        9.6055907856        7.5236589443
  N        12.4470689196       11.6527485324        7.2981991209
  N         0.5331077090        3.4131979864        7.1206556408
  N         1.7350776839        1.4563961206        7.6063144893
  N         2.9525649560        3.4113905508        7.4755082561
  N         5.3272785677        3.3184566701        7.4942053436
  N         7.6223211700        3.3996307089        7.4482829850
  N         8.8320197419        1.3665615949        7.5698853915
  N         6.4935931327        1.3532628778        7.4906395318
  N         4.1996681933        1.3058098238        7.3520189329
  N        10.0170135030        3.3871920644        7.3962561497
  N        11.2963590653        1.3651974254        7.3201625110
  N        12.4226554623        3.3867517335        7.0307390706
  N        13.6422845347        1.4135455652        7.3364735002
  N         5.3551294351        7.4886908110        7.6042416494
  N         4.2234901096        9.5614476323        7.8268671576
  N         0.5526120736       11.7274481241        7.5166436071
  N         1.9184576049        9.5487682674        7.6987110230
  N         3.0378837088        7.5610668148        7.6021004207
  N         4.1395109321        5.5272659343        7.5848892394
  N         1.8111073178        5.5373795197        7.2901911609
  N         0.6557515661        7.5595322963        7.2732894317
