      56
 i =       78, time =       78.000, E =      -152.8333164849
  C         0.5903915984        0.7303938279        7.4728226760
  C         1.6929079513        2.7157483181        7.3662471054
  C         5.3596448312        0.6712943475        7.3583597306
  C         4.1625999030        2.6433684083        7.4197550662
  C         7.6876258374        0.6967924639        7.5955704564
  C         6.4641262772        2.7764952901        7.4560575311
  C         8.8126680559        2.7612191028        7.4668495672
  C        12.4667602782        0.6740451264        7.2529671465
  C        11.3024589914        2.6893384876        7.2265234635
  C        13.6188892945        2.7663609843        7.1180957641
  C         2.9808755354        4.8932970249        7.4368391854
  C         1.7920955541        6.8241810627        7.3651400442
  C         0.7593472587        8.8385418634        7.5023486958
  C         4.2015171019        6.8541642953        7.6092444324
  C         3.0660884983        8.9515052064        7.7259110129
  C         5.3682774067        8.8408756219        7.6775541977
  C        10.1184288160        4.8838881938        7.5660717676
  C         8.9544485382        6.8209666829        7.7044014302
  C         7.8156873785        8.8097582072        7.6516913645
  C         6.5132115307       10.9965877449        7.5475386205
  C        11.3012388914        6.8025389159        7.7455471168
  C        10.1288960647        8.9245764543        7.5963752278
  C        12.4358827686        8.7978297343        7.6086799579
  C        13.5922560336       11.0180067106        7.4496837618
  N         5.3659069281       11.6594503280        7.3587097647
  N         6.5822450667        9.5182781335        7.5571955160
  N         7.7937049205        7.4628324081        7.7536476489
  N         8.9286996458        5.4987662863        7.6363284457
  N         7.6628464097       11.6880462912        7.6876720891
  N         8.9714207396        9.4807142816        7.5676940788
  N        10.1362815575        7.4998171351        7.6764552981
  N        11.2759471136        5.4768770201        7.7533936771
  N        11.3043614604        9.5296803222        7.5147279267
  N        12.4734389374        7.4813928887        7.7796497592
  N        13.7395406517        9.5562118242        7.5110974816
  N        12.4722555861       11.7304416089        7.2569052492
  N         0.5273603760        3.4095386391        7.0381067767
  N         1.6784041083        1.4202533996        7.5923133503
  N         2.9248751734        3.4282515853        7.4233258211
  N         5.2932171116        3.3706395860        7.4766746177
  N         7.6319128931        3.4133768157        7.5036305513
  N         8.8355078617        1.4118948446        7.6335752331
  N         6.5115497658        1.3763382322        7.5195216715
  N         4.1364616222        1.2850959628        7.3203967419
  N        10.0971531688        3.4745718188        7.4127835570
  N        11.3243051970        1.3364315502        7.3015446590
  N        12.4528378720        3.3678875582        7.0164379192
  N        13.6520645964        1.4029428078        7.2750025283
  N         5.3441920974        7.5317329257        7.6395980192
  N         4.2405370181        9.5653173234        7.8655564885
  N         0.5185985425       11.7469818371        7.5460576832
  N         1.8769508839        9.5201149800        7.7385237706
  N         3.0065594518        7.5246062727        7.5449621244
  N         4.1902214790        5.5315127175        7.6301154934
  N         1.7890527132        5.5216956442        7.3153420877
  N         0.7234970425        7.5463888472        7.2322818971
