      56
 i =       61, time =       61.000, E =      -152.8412013142
  C         0.6098774244        0.7246421580        7.4665978736
  C         1.6659825903        2.7722439411        7.3963758276
  C         5.2853642347        0.6483091243        7.3816028851
  C         4.2061350280        2.6451281725        7.4764824559
  C         7.7053288842        0.6721438985        7.6045404577
  C         6.4778869427        2.6907680957        7.5357489129
  C         8.7743324087        2.6782211758        7.5048547819
  C        12.4325939546        0.6800552248        7.3149834477
  C        11.2871017506        2.7111667927        7.2534886950
  C        13.6174529126        2.8053001879        7.1890355115
  C         2.9766155639        4.8640582225        7.4496075984
  C         1.8263554096        6.8886197439        7.4232488475
  C         0.7253095667        8.9359115725        7.4493061518
  C         4.2059501999        6.8184098349        7.6508044203
  C         3.0456169372        8.9135410840        7.6672894129
  C         5.3416121139        8.8621322537        7.6317368424
  C        10.0795935348        4.7975084630        7.6353233055
  C         8.9367772508        6.8082385848        7.6889964341
  C         7.8263942778        8.8434830586        7.5710853757
  C         6.5342490528       11.0503569745        7.5240647458
  C        11.3700422814        6.7949592821        7.7536411996
  C        10.1600946683        8.8482889372        7.5671172530
  C        12.4786630369        8.8333245612        7.5227475421
  C        13.6602281436       11.0722413695        7.4499517107
  N         5.3525097053       11.6479295074        7.3980366437
  N         6.5626636579        9.6013873065        7.4922509714
  N         7.7871431698        7.5404086665        7.7187104474
  N         8.9441511224        5.4939409164        7.5648480393
  N         7.6847624307       11.7151706139        7.6907843656
  N         8.9529421787        9.5420437476        7.5416727717
  N        10.1528969134        7.4958466495        7.6744138855
  N        11.2697917373        5.4446597078        7.7989241848
  N        11.3119170177        9.5037055216        7.5542548016
  N        12.4861409260        7.4985376006        7.5973771580
  N        13.6536053003        9.6242525260        7.5186906336
  N        12.4631245254       11.6661231767        7.3289872585
  N         0.5579762785        3.4302756637        7.1708423895
  N         1.7208878030        1.4393089461        7.6023886748
  N         2.9771959766        3.4289656298        7.4888033742
  N         5.3278000269        3.3014314964        7.5081081808
  N         7.6593226731        3.3781471020        7.4270493262
  N         8.8247032823        1.3617612304        7.5416059844
  N         6.5194558741        1.3294354688        7.4736545837
  N         4.1888687025        1.3499330548        7.3638140911
  N        10.0131362365        3.3695482485        7.3946205495
  N        11.2864671593        1.3918315994        7.3219919015
  N        12.4321116173        3.4017379952        7.0474027721
  N        13.6078190614        1.3805723444        7.3687621040
  N         5.3559606363        7.4871698704        7.5840713840
  N         4.1975755432        9.5290014961        7.7887062406
  N         0.5730849502       11.7011138167        7.5076853009
  N         1.8959870579        9.5666030382        7.6638372638
  N         3.0206212582        7.5461772286        7.6248966986
  N         4.1010607447        5.4852616398        7.5626840860
  N         1.8758884229        5.5432840657        7.2921045821
  N         0.6672631809        7.5919994948        7.3057323019
