      56
 i =       57, time =       57.000, E =      -152.8291671860
  C         0.6309262817        0.7285795035        7.4796305463
  C         1.6970154363        2.7635265634        7.4130566874
  C         5.2912287369        0.6364219081        7.4095506901
  C         4.1970728750        2.6751164853        7.4830427100
  C         7.7049203553        0.6603198230        7.5998857608
  C         6.4865747086        2.7050019261        7.5319860814
  C         8.7909916760        2.6692016949        7.4969301687
  C        12.4135581170        0.6339899556        7.3344420122
  C        11.2471842848        2.7118896414        7.2726097757
  C        13.5900334439        2.8185487304        7.1943833571
  C         2.9589612433        4.8545358071        7.4582595865
  C         1.8203227173        6.8852018015        7.4167016235
  C         0.6923251810        8.9547521372        7.4604504568
  C         4.2129451148        6.7901197433        7.6406915258
  C         3.0139689482        8.9343677955        7.6735778829
  C         5.3747757745        8.8705560704        7.6199153825
  C        10.0888367661        4.7588133645        7.6369303013
  C         8.9278353183        6.8236321734        7.6822812381
  C         7.8183501833        8.8844778904        7.5625362407
  C         6.5432092259       11.0228527288        7.5215581021
  C        11.3655316812        6.7854414230        7.7328059620
  C        10.1429405539        8.8737933932        7.5712415345
  C        12.4929635704        8.8419934520        7.5154503504
  C        13.6642463415       11.0607662018        7.4408996200
  N         5.3459061968       11.6264509071        7.3924516134
  N         6.5532079948        9.6077138652        7.5009972197
  N         7.7838170336        7.5657031758        7.6989711301
  N         8.9480678759        5.4892791856        7.5561444051
  N         7.7080433629       11.6891489353        7.6869134638
  N         8.9658440724        9.5388688008        7.5239317735
  N        10.1572165308        7.4747203547        7.6755026902
  N        11.2571409348        5.4295411469        7.8082268087
  N        11.3165164154        9.4771246800        7.5605824525
  N        12.4928628540        7.5319604476        7.5614031690
  N        13.6570253458        9.6307044992        7.5085098778
  N        12.4799213914       11.6917903075        7.3516305086
  N         0.5660025256        3.4482809850        7.2026440362
  N         1.7003297871        1.4258790320        7.5934156542
  N         2.9791381844        3.4374917491        7.4906301168
  N         5.3319642620        3.3139102499        7.5221990717
  N         7.6690156921        3.3570735240        7.4223415471
  N         8.8269095607        1.3561660700        7.5307066498
  N         6.5222826219        1.3147243503        7.4660874927
  N         4.1590047581        1.3640718169        7.3699580123
  N        10.0318917253        3.3780587012        7.3994692808
  N        11.2839696283        1.4009071250        7.3226905034
  N        12.4448414812        3.4143513762        7.0631888867
  N        13.5980302872        1.3690180420        7.3872362040
  N         5.3532444379        7.5003676904        7.5714765434
  N         4.1899408474        9.5115620010        7.7581920610
  N         0.5935923982       11.6967231246        7.5030542395
  N         1.8607745422        9.5845550847        7.6356828479
  N         3.0043207471        7.5268253694        7.6381747934
  N         4.1103762689        5.4674394921        7.5557709000
  N         1.8926508619        5.5615078908        7.2957341093
  N         0.6948693271        7.6186386095        7.3293356019
