      56
 i =       84, time =       84.000, E =      -152.8259221390
  C         0.5719586162        0.7242660979        7.4802734157
  C         1.6577113070        2.7362260570        7.3327796094
  C         5.3095052521        0.6682708108        7.3812097797
  C         4.1460086622        2.6525935214        7.3920240563
  C         7.7074628512        0.6809873050        7.6066836921
  C         6.4445577139        2.8158782901        7.4404804113
  C         8.8367711787        2.7715079610        7.4719241683
  C        12.4809931924        0.6707942204        7.2387661537
  C        11.2924644314        2.6888472517        7.2382042285
  C        13.6156813393        2.7822053002        7.0678234907
  C         2.9733982804        4.9050186585        7.4513624399
  C         1.8211230175        6.8279880335        7.3314799639
  C         0.7290599781        8.8514158821        7.5361119570
  C         4.2016766434        6.8363598181        7.5890612981
  C         3.0438715128        8.9585119347        7.7587528136
  C         5.3934856802        8.8728933371        7.7020290594
  C        10.1154158627        4.8419724845        7.5427691355
  C         8.9493714519        6.8115066608        7.7098274905
  C         7.8053145678        8.7938113184        7.6847934297
  C         6.5334822525       10.9548752186        7.5534367204
  C        11.3140152562        6.8217981805        7.7330652039
  C        10.1573415633        8.9114393682        7.6172006773
  C        12.4740918148        8.7991486490        7.6416114955
  C        13.6499717207       11.0136524697        7.4329477361
  N         5.3816382491       11.6243564109        7.3273694642
  N         6.5897334270        9.5221723525        7.6143717779
  N         7.7642357634        7.5156862829        7.7529262502
  N         8.9553929760        5.4984590821        7.6608043981
  N         7.6832514150       11.6747902810        7.6790931226
  N         8.9252794592        9.4971609013        7.5653215716
  N        10.1380258987        7.5099183736        7.6754047261
  N        11.2811900093        5.4855205805        7.7293376661
  N        11.3195664683        9.5044605783        7.5033215718
  N        12.4522834247        7.5276382620        7.8445449199
  N        13.7090378180        9.5396799768        7.5030204082
  N        12.4914338900       11.6992999653        7.2443756693
  N         0.5816271132        3.3967747396        7.0110769103
  N         1.6827864133        1.3968905948        7.5888985492
  N         2.9402688694        3.4457346413        7.3895317566
  N         5.2544492522        3.3853342552        7.4606430172
  N         7.6768081578        3.4295536675        7.5174256405
  N         8.8293677367        1.4517148347        7.6551784357
  N         6.5221286367        1.3946605448        7.5178584497
  N         4.1329872171        1.3237556187        7.3014486963
  N        10.1257898684        3.4845227459        7.4196419672
  N        11.3093644563        1.3639276208        7.2839858527
  N        12.4382462843        3.3688836524        7.0154103228
  N        13.6257373104        1.3693838057        7.2445572591
  N         5.3455087565        7.5417727227        7.6522673868
  N         4.2269971012        9.5403597403        7.8717837106
  N         0.4965892037       11.7003597613        7.5717024540
  N         1.8345966826        9.5320046684        7.7641795419
  N         2.9930293187        7.5168691718        7.5135887447
  N         4.1564219009        5.4852399572        7.6401311197
  N         1.8375671287        5.4789934008        7.3323414894
  N         0.7276315470        7.5534607166        7.2153859104
