      56
 i =       59, time =       59.000, E =      -152.8376574511
  C         0.6236080353        0.7281257235        7.4727475765
  C         1.6805143013        2.7687424650        7.4041173409
  C         5.2863419024        0.6429850689        7.3950121728
  C         4.2038022854        2.6587342485        7.4800634450
  C         7.7049473082        0.6653876137        7.6030202914
  C         6.4790282052        2.6977310173        7.5355080591
  C         8.7822061290        2.6733951116        7.5021293600
  C        12.4228914179        0.6545769401        7.3246875340
  C        11.2648008028        2.7128468472        7.2632013705
  C        13.6037800815        2.8143390042        7.1913312333
  C         2.9666150193        4.8601079008        7.4537076178
  C         1.8235998529        6.8871438438        7.4204722731
  C         0.7083075407        8.9470482203        7.4538035371
  C         4.2100798053        6.8032464951        7.6469097088
  C         3.0301899544        8.9254666922        7.6699578533
  C         5.3604128520        8.8687455151        7.6258027562
  C        10.0841712886        4.7747083904        7.6368843416
  C         8.9327946833        6.8149171780        7.6859634798
  C         7.8222622335        8.8629214908        7.5663059942
  C         6.5385603017       11.0365595217        7.5225049000
  C        11.3695249745        6.7906666425        7.7444784321
  C        10.1528920048        8.8600576342        7.5687347128
  C        12.4883129754        8.8368742743        7.5184957473
  C        13.6627745327       11.0666877652        7.4454365860
  N         5.3490759939       11.6363329067        7.3956646274
  N         6.5571575834        9.6052644243        7.4957410579
  N         7.7842430533        7.5550905448        7.7093061267
  N         8.9463362032        5.4920285106        7.5599801823
  N         7.6970063824       11.7052159325        7.6891483438
  N         8.9574673956        9.5410052434        7.5333341962
  N        10.1556364746        7.4854232875        7.6748982227
  N        11.2630758497        5.4370185796        7.8037007590
  N        11.3143506687        9.4895653004        7.5576423995
  N        12.4890383838        7.5173241768        7.5787756001
  N        13.6526782427        9.6279229916        7.5143192313
  N        12.4716139515       11.6793612437        7.3401502278
  N         0.5625575918        3.4394070982        7.1868080137
  N         1.7101377212        1.4320971140        7.5983550803
  N         2.9799854968        3.4340520956        7.4903539371
  N         5.3290182233        3.3049178488        7.5146361873
  N         7.6661380410        3.3678195618        7.4236963614
  N         8.8248325011        1.3595210178        7.5352793506
  N         6.5231922866        1.3214300940        7.4693316491
  N         4.1749178632        1.3593461385        7.3669382383
  N        10.0210907724        3.3722633746        7.3963796212
  N        11.2852894032        1.3975371282        7.3222432953
  N        12.4392121362        3.4078070166        7.0547747507
  N        13.6011888460        1.3733279376        7.3783546492
  N         5.3546890332        7.4926449896        7.5776938541
  N         4.1922340870        9.5192868372        7.7738987537
  N         0.5832035879       11.6978006957        7.5052954070
  N         1.8800296451        9.5745952389        7.6500748981
  N         3.0122673713        7.5365525477        7.6316218540
  N         4.1016305537        5.4749844631        7.5583804329
  N         1.8887065976        5.5512884885        7.2939827594
  N         0.6801054177        7.6053668406        7.3175351815
