      56
 i =       98, time =       98.000, E =      -152.8229119105
  C         0.5608671910        0.6505894565        7.4800075148
  C         1.7118473790        2.6812914559        7.2789299049
  C         5.2887824364        0.6197206418        7.3982624157
  C         4.1629024970        2.7103211261        7.3406824283
  C         7.7119566248        0.7181414414        7.6356069108
  C         6.5170786306        2.7847410685        7.4877306605
  C         8.8010179710        2.7536889548        7.5538287183
  C        12.3860068729        0.6357955944        7.2036230998
  C        11.3458386646        2.7163837455        7.2542862762
  C        13.6311123010        2.7492795882        6.9828638270
  C         2.9991096614        4.7830290224        7.4766483170
  C         1.8440447095        6.8498520997        7.2948388290
  C         0.6756404505        8.8554745657        7.5431925097
  C         4.2045221502        6.8120633674        7.5940202739
  C         2.9586317648        8.8699869225        7.7607490340
  C         5.2679235184        8.8273535987        7.7612117933
  C        10.1640597670        4.8858427506        7.5716752357
  C         8.8974046123        6.8326063421        7.7194481423
  C         7.8274799333        8.8847317379        7.7125878653
  C         6.5946097015       11.0583496851        7.5498275598
  C        11.3459956690        6.8435916024        7.7572461079
  C        10.1162970611        8.8818073849        7.6186325509
  C        12.4454634089        8.8703508418        7.6733433595
  C        13.6528222457       10.9813689487        7.3909401627
  N         5.4152239595       11.6304835860        7.2919313146
  N         6.5721221105        9.6096155022        7.7568326642
  N         7.7803568863        7.4747383948        7.7688067521
  N         8.9910703667        5.4987342594        7.6873123419
  N         7.7457532102       11.7042446466        7.6742494642
  N         8.9805529400        9.5540689846        7.5798403468
  N        10.1060474272        7.5287893995        7.6729830675
  N        11.3223901211        5.5107713533        7.6410530236
  N        11.3141560056        9.4986336522        7.4908467857
  N        12.4767510104        7.5207216325        7.9748106522
  N        13.6637070351        9.5814834966        7.5082628432
  N        12.5025525174       11.6061965554        7.2241399498
  N         0.5492354875        3.3872430068        6.9374474517
  N         1.6750510814        1.3988920747        7.5730242573
  N         2.9275905889        3.4001923380        7.3233024184
  N         5.3093215118        3.3993287368        7.4040729715
  N         7.6600339341        3.4821461591        7.4739756522
  N         8.8379729830        1.4114388140        7.6690979199
  N         6.4699729725        1.3869303162        7.4849440718
  N         4.1712556414        1.3534334764        7.2607378568
  N        10.0812892902        3.3747404084        7.4297417589
  N        11.2779949987        1.3573373323        7.2433663992
  N        12.4664809676        3.4134264125        7.0100178803
  N        13.6195296982        1.3834079827        7.1812007134
  N         5.3319213654        7.4920573510        7.6657712635
  N         4.1391215780        9.5159185056        7.8858602682
  N         0.6126010524       11.6715458026        7.6508204040
  N         1.8059677690        9.5635237781        7.8619625494
  N         3.0442512734        7.5574579843        7.4690618139
  N         4.1478091222        5.5031278507        7.6398881748
  N         1.8444998438        5.5410925548        7.3247874918
  N         0.6835576162        7.5639000265        7.2162565311
