      56
 i =       79, time =       79.000, E =      -152.8335914979
  C         0.5917984349        0.7328103959        7.4746383407
  C         1.6889064621        2.7170994860        7.3617536064
  C         5.3531265390        0.6729048960        7.3615872831
  C         4.1608122316        2.6439603025        7.4151601686
  C         7.6890884894        0.6933854271        7.5966551168
  C         6.4564780998        2.7849172304        7.4516958749
  C         8.8185311878        2.7650099006        7.4658972221
  C        12.4699231502        0.6686337635        7.2505549788
  C        11.2978341083        2.6901687092        7.2282212445
  C        13.6178718979        2.7707040771        7.1099345125
  C         2.9774982598        4.8972587535        7.4384518393
  C         1.7940510411        6.8228542410        7.3590992650
  C         0.7548490180        8.8393303979        7.5085134162
  C         4.2020776072        6.8513002320        7.6052870359
  C         3.0626606792        8.9564455045        7.7322495982
  C         5.3767283627        8.8476537178        7.6811222950
  C        10.1187241839        4.8765750290        7.5610335747
  C         8.9561827025        6.8186118248        7.7051818724
  C         7.8125551848        8.8069531591        7.6577518724
  C         6.5145032144       10.9869076846        7.5487274814
  C        11.3016153334        6.8056961351        7.7428921136
  C        10.1339892203        8.9253681007        7.5999922842
  C        12.4417762144        8.7946830403        7.6150388959
  C        13.5985307383       11.0151529642        7.4472868737
  N         5.3680038672       11.6529231920        7.3535696302
  N         6.5831290527        9.5155832716        7.5659545866
  N         7.7878094012        7.4720842426        7.7535731831
  N         8.9320032589        5.4990658645        7.6408936617
  N         7.6665000162       11.6862901031        7.6864263877
  N         8.9642401832        9.4813337099        7.5673601151
  N        10.1366408877        7.5005143697        7.6763662490
  N        11.2758314488        5.4775871603        7.7499828513
  N        11.3055030711        9.5254631564        7.5125624652
  N        12.4698839138        7.4906562416        7.7905217759
  N        13.7376432267        9.5525676540        7.5094957495
  N        12.4758752495       11.7319886877        7.2543211149
  N         0.5344920937        3.4082324204        7.0327480015
  N         1.6756161140        1.4145877789        7.5913747479
  N         2.9266923564        3.4322792312        7.4177479741
  N         5.2870036309        3.3737393280        7.4745168744
  N         7.6399399057        3.4153408346        7.5073585062
  N         8.8342890252        1.4188638752        7.6381588865
  N         6.5159880721        1.3791694203        7.5205015476
  N         4.1333748081        1.2900344640        7.3172333977
  N        10.1040747066        3.4798999833        7.4142164956
  N        11.3236517839        1.3388416757        7.2988382437
  N        12.4519484598        3.3669211693        7.0160730713
  N        13.6475842718        1.3961687481        7.2698102836
  N         5.3441712415        7.5345847579        7.6421323815
  N         4.2393567805        9.5614928404        7.8670908384
  N         0.5140155027       11.7413120075        7.5498151641
  N         1.8698148280        9.5200238388        7.7420235955
  N         3.0026716732        7.5218973874        7.5394431718
  N         4.1870792214        5.5242357815        7.6326636898
  N         1.7964154451        5.5147951323        7.3185444624
  N         0.7274163256        7.5473647114        7.2292367045
