      56
 i =       58, time =       58.000, E =      -152.8337818762
  C         0.6282954381        0.7287999144        7.4761414845
  C         1.6887902935        2.7662341291        7.4084938485
  C         5.2884531843        0.6397727607        7.4022112423
  C         4.2009190247        2.6667466067        7.4816367475
  C         7.7048723716        0.6626892207        7.6016532358
  C         6.4820821852        2.7014298335        7.5341478167
  C         8.7865369649        2.6712147587        7.4998258720
  C        12.4180727383        0.6432538146        7.3295878960
  C        11.2551231403        2.7127300117        7.2680017247
  C        13.5967032930        2.8171143295        7.1927254516
  C         2.9623632674        4.8574397559        7.4559341598
  C         1.8219626645        6.8861228906        7.4186612736
  C         0.7000535014        8.9513699796        7.4568889756
  C         4.2117060183        6.7962832489        7.6440693842
  C         3.0220763517        8.9304168543        7.6716848203
  C         5.3684184873        8.8703300130        7.6228304305
  C        10.0865854881        4.7656584314        7.6370850582
  C         8.9303779498        6.8191506668        7.6842073347
  C         7.8202521951        8.8736403719        7.5642822995
  C         6.5408903740       11.0295511940        7.5219541100
  C        11.3679144167        6.7881176850        7.7389258683
  C        10.1481049161        8.8668926994        7.5698888694
  C        12.4913304655        8.8392571086        7.5168221660
  C        13.6635043673       11.0636630694        7.4431354834
  N         5.3473967945       11.6311208894        7.3941336862
  N         6.5548859385        9.6066653628        7.4981766920
  N         7.7837266944        7.5608849118        7.7042341599
  N         8.9472629401        5.4907362199        7.5579255554
  N         7.7027502476       11.6978502209        7.6881099321
  N         8.9612415979        9.5399819317        7.5287427003
  N        10.1566065915        7.4799772610        7.6751953708
  N        11.2599319259        5.4332139352        7.8060122872
  N        11.3155194160        9.4829927587        7.5591718933
  N        12.4908708255        7.5253574315        7.5698933552
  N        13.6542400961        9.6294097505        7.5115828611
  N        12.4758684739       11.6859728023        7.3458758989
  N         0.5643738229        3.4439924700        7.1947568946
  N         1.7049223463        1.4287829525        7.5959664836
  N         2.9800235386        3.4360059689        7.4906413505
  N         5.3302495054        3.3087636980        7.5183041292
  N         7.6680491054        3.3624264661        7.4227700387
  N         8.8256198873        1.3579933342        7.5327638364
  N         6.5233340500        1.3178715202        7.4675526060
  N         4.1670270348        1.3623100122        7.3684481154
  N        10.0262719504        3.3748706479        7.3977611467
  N        11.2846927686        1.3995451372        7.3224292481
  N        12.4423621988        3.4110312998        7.0588659523
  N        13.5991764471        1.3707848192        7.3829037248
  N         5.3539619648        7.4962935711        7.5745558925
  N         4.1907039248        9.5151282930        7.7661235197
  N         0.5884702820       11.6970309308        7.5041582416
  N         1.8706939490        9.5793302957        7.6429093298
  N         3.0081634380        7.5315997313        7.6349231842
  N         4.1050433474        5.4708766998        7.5568677403
  N         1.8918692603        5.5562402461        7.2948988010
  N         0.6873996427        7.6121049254        7.3234779130
