      56
 i =       97, time =       97.000, E =      -152.8259787436
  C         0.5548882567        0.6513803107        7.4809419138
  C         1.7093219799        2.6902782337        7.2823282205
  C         5.2843981392        0.6182348448        7.4013180443
  C         4.1517558706        2.7113488860        7.3434096687
  C         7.7170752307        0.7147622180        7.6352416189
  C         6.5177823796        2.7908518770        7.4837047750
  C         8.8039094560        2.7544952592        7.5476235821
  C        12.3929685450        0.6419735092        7.2059988064
  C        11.3431655464        2.7118969475        7.2546609276
  C        13.6272788788        2.7524544896        6.9858220099
  C         3.0033266756        4.7859412147        7.4777457618
  C         1.8481840890        6.8488637733        7.2947782720
  C         0.6757434131        8.8563936480        7.5452997791
  C         4.2044724794        6.8108286227        7.5918838955
  C         2.9647154421        8.8718843352        7.7627549258
  C         5.2767998106        8.8307836583        7.7580064436
  C        10.1611042661        4.8810050470        7.5674745739
  C         8.8946184099        6.8347060106        7.7194454053
  C         7.8283378758        8.8792340081        7.7121736560
  C         6.5943203357       11.0480876738        7.5502420886
  C        11.3455094056        6.8419264488        7.7531129152
  C        10.1181933838        8.8797261611        7.6212357230
  C        12.4538001580        8.8734041541        7.6711507803
  C        13.6565269481       10.9829180102        7.3911839651
  N         5.4140049716       11.6265052337        7.2916617861
  N         6.5752755860        9.6062297730        7.7482797647
  N         7.7796052926        7.4737844406        7.7670028178
  N         8.9907270139        5.4979509190        7.6864417584
  N         7.7402303889       11.6962902828        7.6731581034
  N         8.9718246214        9.5516225056        7.5774063013
  N        10.1082601596        7.5295632665        7.6729298659
  N        11.3182983415        5.5098790747        7.6474619680
  N        11.3215503684        9.4961774245        7.4913106983
  N        12.4726870315        7.5207234345        7.9687321900
  N        13.6606294677        9.5761679523        7.5069433212
  N        12.5033027401       11.6041380050        7.2259514786
  N         0.5556377192        3.3883664451        6.9426070839
  N         1.6789027248        1.3981864708        7.5746648169
  N         2.9298241636        3.4047687861        7.3264713663
  N         5.2981829866        3.3987580152        7.4080037838
  N         7.6644096016        3.4817188012        7.4785982751
  N         8.8381971965        1.4187691792        7.6686897167
  N         6.4692107821        1.3908193599        7.4857709703
  N         4.1701735931        1.3553021765        7.2629725890
  N        10.0853276965        3.3784893392        7.4283948219
  N        11.2764287097        1.3649460746        7.2459737615
  N        12.4630327757        3.4107931152        7.0104855774
  N        13.6206127196        1.3858761821        7.1846313513
  N         5.3328098773        7.4968184317        7.6647825450
  N         4.1461938592        9.5163612945        7.8841713281
  N         0.6046406098       11.6691740584        7.6469013404
  N         1.8061048495        9.5679726636        7.8555037236
  N         3.0425874448        7.5560615270        7.4713063455
  N         4.1437082225        5.5008807966        7.6405202878
  N         1.8450436595        5.5338463113        7.3269815153
  N         0.6843268913        7.5626636374        7.2139645177
