      56
 i =       88, time =       88.000, E =      -152.8196909142
  C         0.5438840241        0.6975156215        7.4818246487
  C         1.6481784567        2.7468743452        7.3103536921
  C         5.2815103829        0.6505198759        7.3964111363
  C         4.1293372351        2.6717044802        7.3747323924
  C         7.7248683725        0.6828723180        7.6177236182
  C         6.4672491814        2.8239131875        7.4453787646
  C         8.8350545232        2.7655991740        7.4888491027
  C        12.4709218151        0.6810107822        7.2289920237
  C        11.3059904079        2.6844546927        7.2460133107
  C        13.6146419380        2.7783785992        7.0360307471
  C         2.9910025173        4.8822956852        7.4648376208
  C         1.8473951300        6.8383026971        7.3139613533
  C         0.7069058793        8.8606365674        7.5495417460
  C         4.2006489100        6.8238372127        7.5827445079
  C         3.0246864184        8.9356566481        7.7699538758
  C         5.3719160067        8.8716258214        7.7206615801
  C        10.1196497413        4.8353155723        7.5400013537
  C         8.9275765777        6.8181958461        7.7139540972
  C         7.8120875873        8.8049790614        7.6996031108
  C         6.5586941987       10.9592312126        7.5548957981
  C        11.3281111514        6.8301067226        7.7315390617
  C        10.1556615802        8.8916552952        7.6265941768
  C        12.4914158795        8.8300499951        7.6541131843
  C        13.6831686028       11.0141305335        7.4188279668
  N         5.3936425255       11.6123724892        7.3092983574
  N         6.5934958750        9.5478212902        7.6560975578
  N         7.7597571490        7.5196583324        7.7544421866
  N         8.9740722679        5.4960141667        7.6724288361
  N         7.6957160981       11.6664562107        7.6737638353
  N         8.9124741735        9.5165728090        7.5652462505
  N        10.1346108951        7.5202043677        7.6744072106
  N        11.2900066113        5.4954376403        7.7077744758
  N        11.3355837227        9.4930465902        7.4979743634
  N        12.4462260067        7.5348667363        7.8873379909
  N        13.6772200034        9.5383300718        7.5010639781
  N        12.4992614511       11.6505580980        7.2388901362
  N         0.6056706350        3.3883268483        6.9943369982
  N         1.6964727426        1.3941809206        7.5870492475
  N         2.9472129333        3.4427441968        7.3675468208
  N         5.2409867781        3.3909848295        7.4460910276
  N         7.6901843511        3.4468418463        7.5141101568
  N         8.8302072902        1.4639874794        7.6625051557
  N         6.5059447230        1.4033775701        7.5082596525
  N         4.1449635881        1.3478789821        7.2889408559
  N        10.1247684739        3.4592157924        7.4219944197
  N        11.2916207111        1.3863822509        7.2717692013
  N        12.4318394651        3.3785934340        7.0149347614
  N        13.6187840039        1.3674185305        7.2249096191
  N         5.3448664661        7.5377172652        7.6574990422
  N         4.2090103543        9.5270817339        7.8741430663
  N         0.5066054301       11.6715485697        7.5934908514
  N         1.8152673412        9.5519311728        7.7887591331
  N         3.0008653939        7.5237467603        7.4965458269
  N         4.1314345120        5.4696139755        7.6416356241
  N         1.8543086672        5.4710638768        7.3373524798
  N         0.7123234828        7.5566041787        7.2081004682
