      56
 i =       62, time =       62.000, E =      -152.8408966669
  C         0.6018946369        0.7221940116        7.4640009196
  C         1.6606617981        2.7728110168        7.3931958696
  C         5.2869650080        0.6501536994        7.3756298701
  C         4.2055725628        2.6400128340        7.4745079896
  C         7.7055222607        0.6762032528        7.6047252952
  C         6.4797378351        2.6879561726        7.5346627910
  C         8.7709931546        2.6808803293        7.5052725614
  C        12.4370459593        0.6926119104        7.3102869164
  C        11.2985084144        2.7095662100        7.2488137042
  C        13.6233214658        2.7994219956        7.1879707171
  C         2.9817427367        4.8652136406        7.4477338662
  C         1.8272169039        6.8886920617        7.4240419527
  C         0.7335279071        8.9293374547        7.4479700377
  C         4.2036538358        6.8260257394        7.6518241822
  C         3.0525698424        8.9072511092        7.6664788872
  C         5.3319925871        8.8575408574        7.6346100771
  C        10.0778175193        4.8101945689        7.6339479511
  C         8.9381629108        6.8061970843        7.6902990264
  C         7.8284076481        8.8354127998        7.5737910346
  C         6.5323978020       11.0565742172        7.5250541544
  C        11.3688555688        6.7965196209        7.7571907911
  C        10.1620709440        8.8441368307        7.5666818470
  C        12.4724754733        8.8321371905        7.5253124363
  C        13.6579126473       11.0743389470        7.4520315658
  N         5.3540498431       11.6540263087        7.3987802758
  N         6.5654934724        9.5989001488        7.4912804419
  N         7.7894717083        7.5316265228        7.7229741994
  N         8.9428854742        5.4945327478        7.5676153113
  N         7.6786002583       11.7176753631        7.6914020135
  N         8.9522987013        9.5417470277        7.5453509294
  N        10.1512772456        7.5003286009        7.6742600428
  N        11.2730442786        5.4483411248        7.7965199384
  N        11.3108136488        9.5107140126        7.5524199827
  N        12.4851791235        7.4886674529        7.6069213237
  N        13.6560806473        9.6220192690        7.5203098485
  N        12.4592255552       11.6605333216        7.3236400518
  N         0.5550456108        3.4261597913        7.1628729017
  N         1.7256605652        1.4428736972        7.6039247955
  N         2.9745741063        3.4260281365        7.4875224489
  N         5.3276409356        3.3017332365        7.5052807758
  N         7.6545405446        3.3828157319        7.4294408030
  N         8.8252730354        1.3625618846        7.5453490181
  N         6.5161405634        1.3336447897        7.4761025496
  N         4.1942709261        1.3437712210        7.3621625631
  N        10.0107707199        3.3697024183        7.3942272875
  N        11.2872451407        1.3882804328        7.3218701592
  N        12.4287860911        3.3989286588        7.0441522848
  N        13.6123133838        1.3851219982        7.3637983827
  N         5.3563947120        7.4855237043        7.5872744243
  N         4.2011979674        9.5343011896        7.7956261632
  N         0.5685925484       11.7037850982        7.5089457476
  N         1.9023077663        9.5632661282        7.6702721059
  N         3.0245563977        7.5504401227        7.6214786478
  N         4.1038216030        5.4913264664        7.5654449867
  N         1.8669199742        5.5404983404        7.2912657028
  N         0.6622427673        7.5856917341        7.3000289400
