       6
 i =       16, time =       16.000, E =      -180.7551035084
 Ti         2.3093159701        2.3462029837        1.4289354484
 Ti        -0.0403460863        0.0270607417       -0.0504858034
  O         0.7159084349        3.8552008905        1.4869807723
  O         3.9968572645        0.6910834773        1.5582089762
  O         1.6805010181        1.5611521568        0.0918453582
  O         3.0854470736        3.0676242052        0.1531478399
