       6
 i =        6, time =        6.000, E =      -180.7642311417
 Ti         2.3286789405        2.3285541848        1.4762178419
 Ti        -0.0142558567        0.0108365773       -0.0103204541
  O         0.8401157961        3.7768087164        1.4591505239
  O         3.8189762531        0.8460467342        1.5073447659
  O         1.4890017638        1.4506217990        0.0130944894
  O         3.1950038487        3.1953949053        0.0445973621
