       6
 i =        3, time =        3.000, E =      -180.7367668165
 Ti         2.3281835091        2.3272835909        1.4815021297
 Ti        -0.0069029441        0.0052797185       -0.0045438542
  O         0.8821454012        3.7526873536        1.4703300236
  O         3.7725981148        0.8865025879        1.4955024057
  O         1.4439948323        1.4252234799        0.0048826370
  O         3.2239231763        3.2244319492        0.0210303216
