       6
 i =       14, time =       14.000, E =      -180.7700568735
 Ti         2.3168743963        2.3402275491        1.4414611182
 Ti        -0.0356138927        0.0250936232       -0.0397389220
  O         0.7277158329        3.8505184303        1.4706468919
  O         3.9703785323        0.7117714303        1.5476057721
  O         1.6473632337        1.5482394750        0.0696657679
  O         3.0966270922        3.0859496401        0.1296081846
