       6
 i =        8, time =        8.000, E =      -180.7791481029
 Ti         2.3279219461        2.3300404134        1.4707992906
 Ti        -0.0193052189        0.0145465191       -0.0152966762
  O         0.8091383289        3.7971536679        1.4552949076
  O         3.8555884950        0.8134135211        1.5157864751
  O         1.5254188915        1.4739094200        0.0215345413
  O         3.1703301444        3.1698210689        0.0623113539
