       6
 i =       22, time =       22.000, E =      -180.7857759192
 Ti         2.2734224138        2.3743210033        1.4016086177
 Ti        -0.0475555015        0.0210704218       -0.0807920521
  O         0.7493189073        3.8090854597        1.5614392412
  O         4.0046833918        0.7090048706        1.5679878612
  O         1.7227737162        1.5224396376        0.1471981030
  O         3.1289793190        3.0757935458        0.2002743970
