       6
 i =       11, time =       11.000, E =      -180.7859873570
 Ti         2.3242859268        2.3339112087        1.4583283160
 Ti        -0.0275368212        0.0202570582       -0.0258071659
  O         0.7625309737        3.8284766761        1.4571214962
  O         3.9161520369        0.7590864305        1.5307963202
  O         1.5876933670        1.5139064309        0.0413335506
  O         3.1296062267        3.1256534735        0.0943722442
