       6
 i =       18, time =       18.000, E =      -180.7491015047
 Ti         2.2995587291        2.3537556058        1.4172447995
 Ti        -0.0440099692        0.0273010449       -0.0613771294
  O         0.7158127662        3.8495406953        1.5081403520
  O         4.0116803394        0.6833336572        1.5660085647
  O         1.7044694918        1.5619343471        0.1134996311
  O         3.0865813045        3.0593266351        0.1737328415
