       6
 i =       13, time =       13.000, E =      -180.7772960877
 Ti         2.3198093452        2.3378209998        1.4474141007
 Ti        -0.0330326002        0.0236826619       -0.0347916473
  O         0.7372520070        3.8449274469        1.4647251668
  O         3.9540519240        0.7257278758        1.5419990523
  O         1.6286935155        1.5384298121        0.0594387295
  O         3.1057668566        3.0977739691        0.1177942684
