       6
 i =       19, time =       19.000, E =      -180.7523607019
 Ti         2.2938526214        2.3581779251        1.4121797145
 Ti        -0.0453675262        0.0266309586       -0.0666186403
  O         0.7201600633        3.8428668430        1.5201476325
  O         4.0143630397        0.6846610531        1.5683461303
  O         1.7126566696        1.5572586723        0.1234389538
  O         3.0921650727        3.0593521322        0.1823094027
