       6
 i =        4, time =        4.000, E =      -180.7458355683
 Ti         2.3285197788        2.3276093018        1.4800479864
 Ti        -0.0093244951        0.0071235657       -0.0062981551
  O         0.8691940534        3.7594046585        1.4660404108
  O         3.7865687212        0.8745480696        1.4993789508
  O         1.4573914814        1.4320223137        0.0071441324
  O         3.2158110051        3.2163998278        0.0285974558
