       6
 i =       15, time =       15.000, E =      -180.7618814208
 Ti         2.3132846923        2.3430926156        1.4350650744
 Ti        -0.0381385136        0.0262763300       -0.0451507185
  O         0.7203061535        3.8541321373        1.4783049767
  O         3.9851798355        0.6997499635        1.5532432316
  O         1.6652495232        1.5561717314        0.0808870184
  O         3.0895349887        3.0754974873        0.1418260460
