       6
 i =        1, time =        1.000, E =      -180.7224308048
 Ti         2.3271858872        2.3268169177        1.4837460719
 Ti        -0.0021795575        0.0016662396       -0.0013905108
  O         0.9027153261        3.7446998882        1.4798889774
  O         3.7508773479        0.9042169185        1.4880058972
  O         1.4235992293        1.4177121371        0.0013697628
  O         3.2342284970        3.2344014844        0.0065688184
