      56
 i =       45, time =       45.000, E =      -152.8332733603
  C         0.5378781988        0.6959896881        7.5174623111
  C         1.6862087716        2.7401923639        7.4621930115
  C         5.2847139035        0.6218516929        7.4769549019
  C         4.1755411534        2.7140846584        7.4896819199
  C         7.7135674205        0.6088843328        7.5540077717
  C         6.5173443354        2.7063006139        7.4691005553
  C         8.8385821504        2.6578922173        7.4341914147
  C        12.4161487845        0.7143929911        7.3857017436
  C        11.3260749508        2.6913376190        7.3036542462
  C        13.6156038223        2.7677804214        7.2476952240
  C         2.9782628756        4.8786693356        7.4809470602
  C         1.8173416264        6.9095553659        7.4070855366
  C         0.6797323116        8.9427919539        7.5183207624
  C         4.2063309420        6.8104365109        7.5764710387
  C         2.9578420525        8.9226346108        7.6861170046
  C         5.2974939822        8.8118999405        7.5909722736
  C        10.0818434591        4.8585942760        7.6169012377
  C         8.9134425515        6.8365446713        7.6431459660
  C         7.8259265725        8.9302354784        7.5603884549
  C         6.5426722416       11.0003555557        7.5241460510
  C        11.3287472793        6.7677984481        7.6372464357
  C        10.1397056514        8.8746543441        7.5928253781
  C        12.4423848136        8.8529582191        7.5133620413
  C        13.7032331167       11.0618058468        7.4317123805
  N         5.3655543610       11.6176205315        7.3767771322
  N         6.5833780058        9.5844814946        7.5512574208
  N         7.8109188743        7.5926607533        7.6258795443
  N         8.9356154029        5.4870974153        7.5498024114
  N         7.7244587918       11.5867975055        7.6572783229
  N         9.0135934155        9.5634310925        7.4571478676
  N        10.1318108961        7.4696250353        7.6738351077
  N        11.2731969405        5.4275216139        7.8183496710
  N        11.2957811940        9.5023166905        7.5723684028
  N        12.4971591241        7.4863306996        7.4900520421
  N        13.7043469756        9.6337971148        7.4538341917
  N        12.5008234408       11.6592383794        7.4190831188
  N         0.5654051086        3.4355391701        7.2949100482
  N         1.7071949351        1.4155693080        7.5592626456
  N         2.9285677503        3.4406171228        7.4781362333
  N         5.3697820681        3.4034588891        7.5750155327
  N         7.6828459451        3.3256009843        7.4418985824
  N         8.8609849293        1.3146318759        7.5325092424
  N         6.4787240875        1.3039808382        7.4768837425
  N         4.1251019538        1.3461088401        7.4008219989
  N        10.0744720601        3.4046823186        7.4396229066
  N        11.2630927087        1.3576549007        7.3370705286
  N        12.4095962135        3.4281020270        7.1339915841
  N        13.6121620483        1.4011426444        7.4225097900
  N         5.3473664431        7.5166530609        7.5364169132
  N         4.1803216227        9.5112081138        7.6588331637
  N         0.6099098699       11.7104340157        7.4902592399
  N         1.7952657173        9.6578429494        7.5627170977
  N         3.0066119617        7.5214531216        7.6739024761
  N         4.2176692939        5.4623460984        7.5602643612
  N         1.7998878409        5.5638593800        7.3025585763
  N         0.7272514698        7.6398218558        7.3844706162
