      56
 i =       12, time =       12.000, E =      -152.8489612881
  C         0.6430246828        0.6561626486        7.4921937891
  C         1.7429457880        2.7415770690        7.4788983489
  C         5.3389260608        0.6604262102        7.4524551933
  C         4.2436548457        2.6567197824        7.5315093648
  C         7.7567642938        0.6335277167        7.5097573457
  C         6.5436792129        2.7196307972        7.5508675570
  C         8.8524923517        2.6670164115        7.5260094743
  C        12.4313912187        0.6632383419        7.4631643264
  C        11.3217542079        2.7200777878        7.4447411407
  C        13.6600692002        2.7840881595        7.4592956388
  C         2.9592767905        4.8695589849        7.4648127306
  C         1.7892704164        6.8514086157        7.5511029281
  C         0.6752986231        8.8585966063        7.4512134409
  C         4.1443634645        6.8608387025        7.5423497662
  C         3.0211139001        8.9542961096        7.5113277383
  C         5.3594132475        8.8813893114        7.5177326991
  C        10.0832134073        4.8048556090        7.5550012473
  C         8.9244191623        6.8352268828        7.5231770318
  C         7.7758483280        8.8523024866        7.4963379088
  C         6.4945566396       11.0358965291        7.5248799773
  C        11.3046250609        6.8446686169        7.5989547492
  C        10.1117212811        8.9415622462        7.4881122135
  C        12.4844800506        8.8653045807        7.4749005729
  C        13.6128136549       11.0083592891        7.5040476428
  N         5.3322001505       11.6717247849        7.4652831791
  N         6.5871694099        9.6093836763        7.5624244053
  N         7.7680932909        7.4986534168        7.5228048899
  N         8.9595157761        5.5006215079        7.5058220452
  N         7.6555643986       11.6624967266        7.5330833862
  N         8.9069178042        9.5535409696        7.4742271090
  N        10.1024808220        7.5761855069        7.5519759291
  N        11.2312100238        5.5076899440        7.5638258101
  N        11.3290036837        9.5593158936        7.5538360498
  N        12.4568865142        7.5097398796        7.4659523106
  N        13.7138126133        9.6004742687        7.4624047767
  N        12.4315486129       11.6359399094        7.5052738824
  N         0.5644894416        3.4293003990        7.4704228516
  N         1.7540280082        1.4140019503        7.5246870422
  N         2.9873806090        3.4131342056        7.4944210213
  N         5.3719464029        3.3645964669        7.5145211190
  N         7.7178790615        3.3634386115        7.4313934157
  N         8.8823359083        1.3258965408        7.4814195641
  N         6.5425227342        1.3452373376        7.4877216200
  N         4.2124225602        1.3299324495        7.4935626032
  N        10.0528003848        3.3623898872        7.4965400519
  N        11.3122251705        1.3580910622        7.4476917220
  N        12.4477629626        3.4054464037        7.3914615277
  N        13.6654209711        1.3800435662        7.4959298178
  N         5.2819407186        7.5380975032        7.4836952203
  N         4.2096104007        9.5492031500        7.5150922079
  N         0.5719692738       11.6621100256        7.4958279672
  N         1.8210588943        9.5348288166        7.5490073578
  N         2.9806625711        7.5748453977        7.5570411312
  N         4.1248194422        5.5175096708        7.5124063099
  N         1.7758191006        5.5136209326        7.4186010870
  N         0.6342718556        7.5134916935        7.4857445033
