      56
 i =       37, time =       37.000, E =      -152.8171660115
  C         0.5452504421        0.7189311408        7.5301480085
  C         1.6454799819        2.7121966741        7.4830072811
  C         5.2568530743        0.6355909585        7.4766456859
  C         4.2244680551        2.6833950145        7.4967538907
  C         7.7304695679        0.5828968586        7.5184154379
  C         6.4912248184        2.6853255243        7.4428682409
  C         8.8545548669        2.6433475095        7.4097068218
  C        12.4441615738        0.7140270119        7.4139307620
  C        11.3628371153        2.7015094496        7.3222282942
  C        13.6603417101        2.7756925552        7.3026915426
  C         2.9885936329        4.9337218758        7.4734645009
  C         1.8160002303        6.8862909279        7.4309167425
  C         0.7184095327        8.9395259222        7.5344938761
  C         4.2051982315        6.8441612384        7.5416813851
  C         2.9733395795        8.9342337155        7.6566238997
  C         5.2486232916        8.8198063889        7.5742407501
  C        10.0842114702        4.9170097867        7.5972808412
  C         8.9073295077        6.8329972069        7.6059747552
  C         7.8735598320        8.8877251561        7.5581917084
  C         6.5266227597       10.9949102473        7.5299288761
  C        11.3404381618        6.7895048357        7.5957575504
  C        10.1474728654        8.8422097047        7.5868768973
  C        12.4186263406        8.8107909719        7.5088117829
  C        13.6707497474       11.0599514919        7.4468218480
  N         5.3803291561       11.6476578458        7.3835775881
  N         6.5723557529        9.5427790186        7.5838336294
  N         7.8294191815        7.5727650979        7.5824375725
  N         8.8965901534        5.5228887616        7.5469068310
  N         7.6996558734       11.6097066530        7.6259839089
  N         9.0141698575        9.5816290030        7.4275489996
  N        10.1201648725        7.5068070067        7.6600238239
  N        11.2951543065        5.4870507982        7.7891342088
  N        11.2957472708        9.5577213563        7.5786229109
  N        12.4512978925        7.4392903443        7.4699065789
  N        13.6844617800        9.6020827027        7.4215890549
  N        12.5145368217       11.6751234100        7.4542154227
  N         0.5079602456        3.3948783617        7.3465189738
  N         1.6907280394        1.3980486642        7.5405748060
  N         2.9214009827        3.4526768958        7.4714473218
  N         5.3610549846        3.3904432446        7.5902303425
  N         7.7132333375        3.3272146812        7.4531919692
  N         8.8573966154        1.2833256575        7.5368318826
  N         6.4887546947        1.3092018456        7.4991501920
  N         4.1693041370        1.3574686017        7.4363504601
  N        10.0857201817        3.4081759873        7.4713528365
  N        11.2828904949        1.3173523511        7.3563701279
  N        12.4459562718        3.3828056394        7.1952412354
  N        13.6092171725        1.4335708373        7.4359293255
  N         5.3413723645        7.4708279009        7.5134924683
  N         4.1292544248        9.5378987079        7.6037008308
  N         0.5917078935       11.7458569715        7.4853785904
  N         1.8669510310        9.6449324105        7.5487932179
  N         3.0218374388        7.5592452632        7.6791156504
  N         4.1968678079        5.5126013866        7.5611164122
  N         1.7883838104        5.5341604862        7.3212096170
  N         0.6822010928        7.5927826537        7.4089644712
