      56
 i =       38, time =       38.000, E =      -152.8165965788
  C         0.5391126101        0.7146755054        7.5295613405
  C         1.6452575643        2.7158776293        7.4809637879
  C         5.2554787829        0.6346186671        7.4783519105
  C         4.2192854868        2.6853883493        7.4952271790
  C         7.7284428709        0.5820014510        7.5221268980
  C         6.4905512242        2.6867417286        7.4435653098
  C         8.8536697261        2.6462229709        7.4102320501
  C        12.4424448554        0.7213212546        7.4107076329
  C        11.3672963919        2.7026819339        7.3187840727
  C        13.6621019223        2.7729379052        7.2961208372
  C         2.9891501415        4.9300068609        7.4753292639
  C         1.8174725724        6.8925114970        7.4265576563
  C         0.7146076854        8.9396513186        7.5348142921
  C         4.2057043833        6.8427200208        7.5445251384
  C         2.9705410190        8.9311973328        7.6620837042
  C         5.2483799075        8.8168591354        7.5763764756
  C        10.0820951932        4.9167633106        7.5993451780
  C         8.9082859851        6.8308442584        7.6105958288
  C         7.8681288424        8.8918162601        7.5594005377
  C         6.5275266488       10.9974071730        7.5290207625
  C        11.3393991472        6.7855798469        7.5984652232
  C        10.1494344763        8.8405419193        7.5895108685
  C        12.4198127987        8.8152194788        7.5100183884
  C        13.6785439650       11.0617025597        7.4442936701
  N         5.3811352837       11.6437771016        7.3819535502
  N         6.5772269146        9.5472454676        7.5804868008
  N         7.8282575460        7.5777860769        7.5870073304
  N         8.9008969799        5.5186339453        7.5476578036
  N         7.7033412010       11.6045874548        7.6299709653
  N         9.0141042105        9.5825165996        7.4295198266
  N        10.1196727632        7.5035256299        7.6624036917
  N        11.2950991003        5.4793941896        7.7948708855
  N        11.2930800624        9.5546605765        7.5779213088
  N        12.4571136940        7.4405613648        7.4716856947
  N        13.6880397022        9.6077328703        7.4244073366
  N        12.5122312957       11.6690024700        7.4504761060
  N         0.5137281069        3.3966898936        7.3405896614
  N         1.6942902559        1.4000425256        7.5423787025
  N         2.9197480607        3.4514302994        7.4717996855
  N         5.3641145637        3.3962718111        7.5899907776
  N         7.7116813621        3.3279045960        7.4528497279
  N         8.8591314001        1.2862581310        7.5371837804
  N         6.4860456828        1.3082534868        7.4968253572
  N         4.1644485487        1.3545739351        7.4319070154
  N        10.0836548254        3.4068705689        7.4678971398
  N        11.2777173497        1.3194160891        7.3537884193
  N        12.4350956135        3.3878983831        7.1876477842
  N        13.6093843900        1.4321961423        7.4341044519
  N         5.3415532322        7.4740935564        7.5162202516
  N         4.1340665188        9.5338210427        7.6097101595
  N         0.5944538242       11.7413217029        7.4856633642
  N         1.8568466109        9.6503371943        7.5489470602
  N         3.0226426467        7.5555910611        7.6800576687
  N         4.2052744411        5.5047235341        7.5616902293
  N         1.7846583715        5.5351021193        7.3179535405
  N         0.6877103948        7.5985734655        7.4058722042
