      56
 i =       10, time =       10.000, E =      -152.8429939950
  C         0.6533942621        0.6487264698        7.4921478407
  C         1.7419592487        2.7215313006        7.4809429314
  C         5.3327915016        0.6561341398        7.4585173244
  C         4.2631053918        2.6517860715        7.5284292510
  C         7.7721397280        0.6348794538        7.5097752856
  C         6.5479272268        2.7233819229        7.5488558078
  C         8.8507713716        2.6690241179        7.5270261857
  C        12.4245463596        0.6535052846        7.4682760478
  C        11.3238868833        2.7217590656        7.4545318737
  C        13.6612942556        2.7942522593        7.4671344966
  C         2.9619426922        4.8867996511        7.4698512461
  C         1.7922597009        6.8423910291        7.5478288449
  C         0.6747511331        8.8615036757        7.4546676058
  C         4.1500395524        6.8497235754        7.5377494933
  C         3.0068745658        8.9609288036        7.5070980845
  C         5.3532121375        8.8807169098        7.5144557259
  C        10.0878307917        4.8114100234        7.5477734652
  C         8.9117088077        6.8373336895        7.5190542639
  C         7.7868364295        8.8535965858        7.4949454555
  C         6.5024330683       11.0464421741        7.5214119160
  C        11.3110000947        6.8397846083        7.5874468294
  C        10.0966023586        8.9338904763        7.4870538574
  C        12.4726058424        8.8638126554        7.4772903212
  C        13.6013052119       11.0143827159        7.5046712095
  N         5.3324585315       11.6794768770        7.4715945683
  N         6.5870842060        9.6113752786        7.5532873757
  N         7.7690700581        7.4908963356        7.5194947232
  N         8.9511633610        5.5022991338        7.5036832758
  N         7.6611488219       11.6639852508        7.5270108315
  N         8.9034881125        9.5565253227        7.4792771793
  N        10.0999023081        7.5732606118        7.5429407226
  N        11.2407341037        5.5121789776        7.5507444126
  N        11.3252337176        9.5714007786        7.5464687991
  N        12.4549808936        7.5040788442        7.4708676380
  N        13.7149296945        9.6028580142        7.4689675909
  N        12.4353416387       11.6365250539        7.5053176833
  N         0.5548190886        3.4246741198        7.4760477449
  N         1.7529994438        1.4097730844        7.5215695129
  N         2.9851937273        3.4109706819        7.4958120822
  N         5.3612077398        3.3746823673        7.5101158006
  N         7.7159712705        3.3753039511        7.4384593976
  N         8.8784767276        1.3248432939        7.4820946763
  N         6.5371661748        1.3463532591        7.4879346980
  N         4.2115849857        1.3306940211        7.4947758796
  N        10.0520038605        3.3632386283        7.4967047218
  N        11.3120487269        1.3509911996        7.4565228526
  N        12.4687569765        3.4047041541        7.4090130825
  N        13.6690286593        1.3874243990        7.4979986466
  N         5.2791445610        7.5294576547        7.4855995255
  N         4.1930966028        9.5477687760        7.5118700495
  N         0.5865655033       11.6636965622        7.4967960570
  N         1.8285278796        9.5336203445        7.5427832320
  N         2.9854335344        7.5794358750        7.5469021416
  N         4.1376217692        5.5137104201        7.5094502930
  N         1.7682424022        5.5069743748        7.4302589573
  N         0.6271114226        7.5055505371        7.4888033926
