      56
 i =       50, time =       50.000, E =      -152.8260663405
  C         0.5876287302        0.7064717293        7.5035096980
  C         1.7204467983        2.7484534523        7.4447388383
  C         5.3041669663        0.6194176362        7.4574316951
  C         4.1671040821        2.7192572535        7.4884953604
  C         7.7083072209        0.6383284510        7.5772448343
  C         6.5256830797        2.7170784969        7.4991096027
  C         8.8214922563        2.6603088638        7.4631425089
  C        12.4001359564        0.6552900972        7.3661760868
  C        11.2605311909        2.6924198701        7.2960028138
  C        13.5789215081        2.7940301138        7.2179896012
  C         2.9617190358        4.8488878866        7.4749013071
  C         1.8144351268        6.8940600373        7.4054875895
  C         0.6653001466        8.9544662097        7.4941020287
  C         4.2113513617        6.7820290459        7.6056393383
  C         2.9678736544        8.9341639148        7.6863177516
  C         5.3564931685        8.8379600541        7.6017170310
  C        10.0919504293        4.7862528091        7.6284115980
  C         8.9145089708        6.8440500025        7.6629132283
  C         7.8124967885        8.9375566010        7.5580166733
  C         6.5514858480       10.9968503130        7.5220438302
  C        11.3386477384        6.7692734760        7.6780471876
  C        10.1226722755        8.8985454820        7.5843215279
  C        12.4708807137        8.8608792288        7.5124319321
  C        13.6840538404       11.0538636856        7.4304945005
  N         5.3483508552       11.6107580256        7.3804453962
  N         6.5645149691        9.6036132847        7.5283771730
  N         7.7966276116        7.5850741379        7.6572480283
  N         8.9479188235        5.4804738934        7.5501070258
  N         7.7283931642       11.6149472230        7.6730253016
  N         9.0035881434        9.5423227646        7.4853470599
  N        10.1484384575        7.4559686626        7.6764837207
  N        11.2549733273        5.4144378735        7.8193280658
  N        11.3112362302        9.4690188501        7.5681542262
  N        12.5045308216        7.5280679478        7.5126479879
  N        13.6925241437        9.6363659932        7.4789104476
  N        12.4978712756       11.6858552173        7.3923570665
  N         0.5748265166        3.4576747273        7.2578217291
  N         1.6969292687        1.4188808956        7.5734936885
  N         2.9525188726        3.4385850910        7.4847096477
  N         5.3550821129        3.3711526715        7.5539574114
  N         7.6670448808        3.3286480572        7.4304446950
  N         8.8470258686        1.3351420402        7.5273972301
  N         6.4937864906        1.3037993252        7.4661490509
  N         4.1190356902        1.3546497814        7.3840189337
  N        10.0657338280        3.4009012892        7.4196433653
  N        11.2721980948        1.3888419185        7.3283033038
  N        12.4329843487        3.4351682890        7.1002665338
  N        13.6060825177        1.3775817652        7.4116556974
  N         5.3499569168        7.5263665145        7.5507585180
  N         4.1933393895        9.5031733109        7.6993758754
  N         0.6145144455       11.7008306021        7.4954243380
  N         1.7977596050        9.6311780696        7.5872597010
  N         2.9933510552        7.5090770397        7.6604858227
  N         4.1783885885        5.4558503836        7.5563226432
  N         1.8463016548        5.5827978877        7.2991197494
  N         0.7330217076        7.6482147952        7.3657516233
