      56
 i =       34, time =       34.000, E =      -152.8238912320
  C         0.5642284032        0.7305693606        7.5297856252
  C         1.6545319999        2.7053758000        7.4876235230
  C         5.2724701219        0.6368952165        7.4698340952
  C         4.2334021722        2.6831199103        7.5024539103
  C         7.7334434604        0.5939626023        7.5090262919
  C         6.5020218223        2.6838612014        7.4459531672
  C         8.8547485402        2.6339282849        7.4131917451
  C        12.4477261288        0.6868662870        7.4229612642
  C        11.3407369523        2.6936657506        7.3342566099
  C        13.6385666918        2.7800748715        7.3218432738
  C         2.9841287572        4.9354474951        7.4671176462
  C         1.8089178440        6.8666360637        7.4463361480
  C         0.7265527070        8.9360512810        7.5291504209
  C         4.2006324501        6.8458759957        7.5361389450
  C         2.9827682486        8.9411297100        7.6381273999
  C         5.2594122646        8.8290817897        7.5676098725
  C        10.0912285727        4.9076207261        7.5920246149
  C         8.9071931901        6.8425736171        7.5924829897
  C         7.8840061041        8.8787675357        7.5527621309
  C         6.5251225697       10.9858506126        7.5327433064
  C        11.3372403712        6.8022210411        7.5921437278
  C        10.1398205030        8.8599826258        7.5758227840
  C        12.4179768364        8.8026984417        7.5041069957
  C        13.6484680466       11.0532790732        7.4551807281
  N         5.3733690530       11.6567551870        7.3896882697
  N         6.5540714574        9.5326045427        7.5921922770
  N         7.8286988285        7.5567161617        7.5701966220
  N         8.8887989756        5.5315265653        7.5438760707
  N         7.6884245217       11.6238168877        7.6141344164
  N         9.0139248409        9.5737083146        7.4247529685
  N        10.1243159963        7.5132320301        7.6517105909
  N        11.2891791454        5.5054585804        7.7683970801
  N        11.3069336226        9.5571788617        7.5804001986
  N        12.4390515335        7.4459905986        7.4650495323
  N        13.6742902401        9.5842245792        7.4157711360
  N        12.5193576579       11.6964086083        7.4644928344
  N         0.5031466597        3.3982686036        7.3641664823
  N         1.6828891196        1.3945370864        7.5362792179
  N         2.9300571436        3.4546636137        7.4713774217
  N         5.3520434224        3.3691028751        7.5880816542
  N         7.7131930763        3.3228874832        7.4520099427
  N         8.8530441295        1.2780923245        7.5337097333
  N         6.4983968508        1.3128466071        7.5044344597
  N         4.1796039113        1.3663702331        7.4490276402
  N        10.0929795021        3.4132634336        7.4804335715
  N        11.3001417574        1.3178631243        7.3644209995
  N        12.4795752693        3.3708902950        7.2180729446
  N        13.6104958768        1.4300594605        7.4422199647
  N         5.3426541186        7.4705358335        7.5056540896
  N         4.1250225758        9.5513278356        7.5869199758
  N         0.5813432839       11.7553819124        7.4850635783
  N         1.8902063117        9.6256430976        7.5501102015
  N         3.0136544049        7.5654045379        7.6732007112
  N         4.1650277689        5.5349240434        7.5580706918
  N         1.8054840071        5.5366358297        7.3320963525
  N         0.6690978675        7.5785622694        7.4188369910
