      56
 i =       36, time =       36.000, E =      -152.8187794448
  C         0.5516784659        0.7230438968        7.5303806727
  C         1.6472218886        2.7091048036        7.4847888642
  C         5.2601496418        0.6362216906        7.4746525834
  C         4.2286081853        2.6823833822        7.4984508792
  C         7.7320632221        0.5852124204        7.5150402699
  C         6.4934039883        2.6843873213        7.4430301293
  C         8.8550291991        2.6403276130        7.4100188392
  C        12.4454820597        0.7056631078        7.4170022887
  C        11.3566362354        2.6995642950        7.3259196708
  C        13.6556593751        2.7779262411        7.3090410464
  C         2.9875515032        4.9359035433        7.4714753757
  C         1.8140982234        6.8798163072        7.4355967448
  C         0.7216309104        8.9389970031        7.5334477117
  C         4.2042440163        6.8450007347        7.5393743438
  C         2.9762161075        8.9370303289        7.6508684520
  C         5.2506315156        8.8228424185        7.5721053671
  C        10.0865041384        4.9154482911        7.5954037527
  C         8.9067189558        6.8357570508        7.6014813370
  C         7.8780877836        8.8842952033        7.5566990670
  C         6.5259986458       10.9921082489        7.5308501559
  C        11.3405465760        6.7935457634        7.5938468751
  C        10.1450889331        8.8460404399        7.5837409756
  C        12.4179312180        8.8072254023        7.5074393359
  C        13.6629893878       11.0579522944        7.4494477615
  N         5.3787333626       11.6511467505        7.3853809102
  N         6.5668345777        9.5388625367        7.5868617771
  N         7.8299388213        7.5675043615        7.5781882509
  N         8.8930912947        5.5264766580        7.5460398879
  N         7.6959757185       11.6146577128        7.6220761169
  N         9.0142079073        9.5798154336        7.4261329451
  N        10.1211424795        7.5094196806        7.6574916906
  N        11.2941958411        5.4939664228        7.7828977933
  N        11.2989796732        9.5591300330        7.5792681904
  N        12.4463024366        7.4397645441        7.4682531752
  N        13.6809772641        9.5962870222        7.4192409615
  N        12.5165849364       11.6818238331        7.4577320592
  N         0.5041867841        3.3945860194        7.3523127223
  N         1.6874922637        1.3964446385        7.5389806593
  N         2.9236646088        3.4536385658        7.4712610445
  N         5.3579089114        3.3839300292        7.5899858355
  N         7.7139493996        3.3261583504        7.4531643079
  N         8.8557173203        1.2809677668        7.5361509722
  N         6.4916740520        1.3102614945        7.5011784689
  N         4.1733960266        1.3604578131        7.4406293718
  N        10.0879592229        3.4097021384        7.4745497912
  N        11.2884032450        1.3164037164        7.3589573310
  N        12.4572920151        3.3783017946        7.2027142132
  N        13.6093304122        1.4337151595        7.4378497339
  N         5.3415068371        7.4691181732        7.5108612211
  N         4.1260271232        9.5421254605        7.5980012787
  N         0.5886964489       11.7497868796        7.4851892872
  N         1.8760023838        9.6389637433        7.5489693994
  N         3.0200701995        7.5621040330        7.6776819694
  N         4.1873513320        5.5202801260        7.5603320887
  N         1.7931785342        5.5341565406        7.3246203559
  N         0.6772836650        7.5875489503        7.4120976667
