      56
 i =       25, time =       25.000, E =      -152.8515228956
  C         0.5743915228        0.7314560492        7.5134095728
  C         1.6993533872        2.7503501225        7.4855373289
  C         5.3562349055        0.6529230527        7.4472859852
  C         4.1923358375        2.7019677393        7.5229205225
  C         7.6997797668        0.6496287427        7.4990258062
  C         6.5492757773        2.6982896711        7.4923437343
  C         8.8414518100        2.6238694486        7.4601629920
  C        12.4669806857        0.6644670072        7.4419659509
  C        11.3002267169        2.6625926876        7.3776216134
  C        13.5965588852        2.7445499052        7.3833495525
  C         2.9630323320        4.8634231002        7.4521679597
  C         1.7787613645        6.8536778725        7.5054547559
  C         0.7211687285        8.8850757622        7.4871223212
  C         4.1640098427        6.8713261618        7.5406682986
  C         3.0318873656        8.9229629556        7.5758226763
  C         5.3245146731        8.8484879764        7.5458867843
  C        10.0920022668        4.8446939379        7.5818638108
  C         8.9446478270        6.8538406173        7.5579462830
  C         7.8369623600        8.8574968657        7.5265654356
  C         6.5082923791       10.9749255433        7.5370919322
  C        11.2851558334        6.8442076920        7.6079189427
  C        10.1511180843        8.9492765247        7.5304653817
  C        12.4472126132        8.8238015531        7.4850840840
  C        13.6493883760       11.0319129435        7.4819943920
  N         5.3411305688       11.6489224608        7.4173843258
  N         6.5224198297        9.5443890357        7.5990442176
  N         7.7892824113        7.5372119315        7.5446330943
  N         8.9230516568        5.5169018136        7.5291540810
  N         7.6620610063       11.6419510948        7.5798556270
  N         8.9869529447        9.5437647443        7.4366857468
  N        10.1347612857        7.5335462689        7.6165546263
  N        11.2378638823        5.5043976419        7.6839485022
  N        11.3323897654        9.5103982619        7.5795970191
  N        12.4498891823        7.5153917895        7.4541795028
  N        13.6649560369        9.5561702715        7.4214284973
  N        12.4885923661       11.7065222624        7.4890817528
  N         0.5686970126        3.4351706556        7.4157382581
  N         1.7181258391        1.4056237354        7.5321915735
  N         2.9737286126        3.4444571134        7.4790279840
  N         5.3716519699        3.3219280717        7.5621419288
  N         7.7019139177        3.3063148298        7.4347645807
  N         8.8709941722        1.3004652386        7.5093958416
  N         6.5397105293        1.3277666325        7.5032180575
  N         4.1895256886        1.3638587572        7.4772269697
  N        10.1028842628        3.4147066046        7.4949512604
  N        11.3256306409        1.3662744883        7.3926584301
  N        12.4623861620        3.3842995356        7.2847738889
  N        13.6276320210        1.3705991977        7.4671652698
  N         5.3420071805        7.5319950461        7.4875887373
  N         4.1996937500        9.5812219507        7.5473300474
  N         0.5323587340       11.7196708051        7.4878540231
  N         1.8579856691        9.5773991134        7.5590506693
  N         2.9678591246        7.5480382128        7.6327005618
  N         4.0782640075        5.5548357974        7.5402684195
  N         1.8449503714        5.5554258236        7.3655107303
  N         0.6624881059        7.5641213397        7.4517379064
