      56
 i =       35, time =       35.000, E =      -152.8211753085
  C         0.5582068509        0.7270132436        7.5302601850
  C         1.6503494725        2.7067258881        7.4863516531
  C         5.2654514550        0.6366176965        7.4723440329
  C         4.2316761720        2.6823104032        7.5003745784
  C         7.7331215908        0.5889777539        7.5118767658
  C         6.4970906232        2.6838944719        7.4440668544
  C         8.8550966459        2.6371250225        7.4111899857
  C        12.4466234527        0.6963535084        7.4200427252
  C        11.3490094094        2.6968859182        7.3299763235
  C        13.6481381232        2.7794667842        7.3154654435
  C         2.9860295974        4.9365186887        7.4693249353
  C         1.8117051381        6.8731046768        7.4407856146
  C         0.7243765716        8.9378785625        7.5316436372
  C         4.2027238409        6.8454923358        7.5375109710
  C         2.9793523276        8.9394329851        7.6446307675
  C         5.2543258899        8.8259913511        7.5698767202
  C        10.0889153721        4.9122163138        7.5936369509
  C         8.9066125143        6.8390527317        7.5969401522
  C         7.8816751559        8.8813177492        7.5548685909
  C         6.5255323371       10.9890138417        7.5318039905
  C        11.3395185539        6.7978292352        7.5926395026
  C        10.1424252426        8.8520891478        7.5800076643
  C        12.4177053533        8.8044796887        7.5058531073
  C        13.6553580935       11.0556883483        7.4522645360
  N         5.3763588159       11.6542511063        7.3874362389
  N         6.5606142649        9.5354130785        7.5896794335
  N         7.8297296157        7.5620234977        7.5740742490
  N         8.8904221450        5.5294154499        7.5450205259
  N         7.6921852691       11.6194535419        7.6180902690
  N         9.0141548194        9.5771040678        7.4251989709
  N        10.1225695475        7.5115406174        7.6546979971
  N        11.2921789752        5.5002196111        7.7759179057
  N        11.3027897581        9.5589318651        7.5798710505
  N        12.4421312470        7.4420292395        7.4666268030
  N        13.6775296189        9.5902330559        7.4172799581
  N        12.5182707579       11.6890962116        7.4611843946
  N         0.5025318434        3.3957718403        7.3582412197
  N         1.6847545808        1.3952432798        7.5375347947
  N         2.9265896885        3.4543160866        7.4712365635
  N         5.3547872535        3.3766749368        7.5892587501
  N         7.7139085120        3.3246956758        7.4527649623
  N         8.8541952647        1.2791776288        7.5351026450
  N         6.4949145409        1.3114862909        7.5029644470
  N         4.1768553314        1.3635097936        7.4448996193
  N        10.0904220798        3.4114434015        7.4776078501
  N        11.2942792624        1.3165659518        7.3616626111
  N        12.4688581689        3.3742617074        7.2103913993
  N        13.6097563796        1.4325504392        7.4399616415
  N         5.3419528742        7.4690037369        7.5082226128
  N         4.1245319896        9.5466561863        7.5923608211
  N         0.5852295789       11.7530613532        7.4850844340
  N         1.8839564516        9.6324016104        7.5494297665
  N         3.0172971926        7.5641963245        7.6756931187
  N         4.1765575257        5.5278617038        7.5593063524
  N         1.7990162053        5.5350233610        7.3282941493
  N         0.6728520233        7.5827443446        7.4154154425
