      56
 i =       42, time =       42.000, E =      -152.8245170472
  C         0.5266857024        0.7001078356        7.5240998997
  C         1.6610871968        2.7315746088        7.4709853286
  C         5.2668603026        0.6276543948        7.4809642891
  C         4.1932816482        2.7008139921        7.4910531811
  C         7.7191185600        0.5918114220        7.5394807521
  C         6.5016914957        2.6965295113        7.4543069375
  C         8.8466471602        2.6548406769        7.4201184392
  C        12.4299622121        0.7316370325        7.3968114390
  C        11.3591649489        2.6987719668        7.3083426314
  C        13.6434634000        2.7640060378        7.2684625916
  C         2.9859634897        4.9036835353        7.4804839322
  C         1.8191618814        6.9093382529        7.4129459007
  C         0.6952545739        8.9395728267        7.5290102537
  C         4.2055569235        6.8286948466        7.5606032539
  C         2.9608611968        8.9220354186        7.6793086078
  C         5.2664690731        8.8090058117        7.5847723782
  C        10.0782709990        4.8952040171        7.6090051890
  C         8.9123688082        6.8302400097        7.6294767596
  C         7.8426568478        8.9135457650        7.5613468742
  C         6.5347098134       11.0022863257        7.5258751889
  C        11.3315073093        6.7727374811        7.6167967434
  C        10.1493274922        8.8534919692        7.5944891785
  C        12.4295499021        8.8376506685        7.5129777794
  C        13.7015059415       11.0646745624        7.4357886340
  N         5.3760401458       11.6274567442        7.3775553822
  N         6.5871729442        9.5683408157        7.5647087682
  N         7.8194630277        7.5913095606        7.6079690155
  N         8.9217431155        5.4990146078        7.5494724027
  N         7.7169128578       11.5879874859        7.6459815719
  N         9.0141122324        9.5762176142        7.4426647081
  N        10.1234390272        7.4849205793        7.6701162154
  N        11.2859318579        5.4469819882        7.8119330711
  N        11.2899537503        9.5288167065        7.5748199043
  N        12.4826376692        7.4607208800        7.4805948416
  N        13.7006191607        9.6261818257        7.4395761238
  N        12.5038755857       11.6551817471        7.4335815570
  N         0.5459719853        3.4159630213        7.3155101935
  N         1.7059851565        1.4096517912        7.5512948186
  N         2.9202423912        3.4449342763        7.4747071692
  N         5.3716153537        3.4086332569        7.5841505028
  N         7.6977512459        3.3274508181        7.4481026691
  N         8.8634003334        1.3016088068        7.5356867080
  N         6.4785466647        1.3053844753        7.4856461166
  N         4.1407792080        1.3465718959        7.4136432114
  N        10.0775551473        3.4044923864        7.4522743090
  N        11.2641044911        1.3373647339        7.3438244078
  N        12.4080312123        3.4118958414        7.1567681550
  N        13.6115835913        1.4172979941        7.4274999736
  N         5.3445784560        7.4977053497        7.5276563921
  N         4.1614352565        9.5195348472        7.6363705587
  N         0.6037869789       11.7217998411        7.4877580909
  N         1.8156968236        9.6621017423        7.5537958526
  N         3.0169002230        7.5361562642        7.6790361759
  N         4.2233068488        5.4761524808        7.5619066676
  N         1.7840079816        5.5479654087        7.3073868476
  N         0.7120837337        7.6238854116        7.3938356391
