      56
 i =       11, time =       11.000, E =      -152.8463903601
  C         0.6488256062        0.6519794839        7.4920644656
  C         1.7429029762        2.7315009908        7.4798214749
  C         5.3355450915        0.6581952492        7.4553558763
  C         4.2539017100        2.6537807245        7.5301114989
  C         7.7650911644        0.6338078876        7.5098637569
  C         6.5458292673        2.7213995979        7.5502797950
  C         8.8519891635        2.6682362315        7.5268680226
  C        12.4275001572        0.6580999158        7.4656491424
  C        11.3225160311        2.7215399069        7.4496936251
  C        13.6609617616        2.7897592522        7.4633198557
  C         2.9605578296        4.8784995660        7.4672769346
  C         1.7910354066        6.8467880611        7.5498054289
  C         0.6746357832        8.8602572040        7.4526352576
  C         4.1470564851        6.8551416792        7.5402012685
  C         3.0139618727        8.9580750872        7.5090379292
  C         5.3569388919        8.8814361048        7.5160635193
  C        10.0854999198        4.8075629363        7.5514909180
  C         8.9179001351        6.8362424437        7.5210790675
  C         7.7810769147        8.8530796931        7.4955143356
  C         6.4983440035       11.0413659531        7.5231855928
  C        11.3080932919        6.8421546147        7.5935087617
  C        10.1037243240        8.9375380563        7.4873826355
  C        12.4791119183        8.8647824064        7.4759746595
  C        13.6063367028       11.0109216534        7.5044451458
  N         5.3322567263       11.6759031605        7.4684856790
  N         6.5877117681        9.6107626839        7.5579263126
  N         7.7687119716        7.4944116976        7.5211679508
  N         8.9555445529        5.5015073274        7.5046792706
  N         7.6580119326       11.6633616479        7.5299970758
  N         8.9047413118        9.5550423780        7.4768181068
  N        10.1010359245        7.5750992665        7.5473931969
  N        11.2358556012        5.5101265993        7.5570804565
  N        11.3274636915        9.5657706411        7.5502611702
  N        12.4559223795        7.5066608170        7.4683471699
  N        13.7149407906        9.6020086221        7.4657167173
  N        12.4331149305       11.6358770608        7.5053583067
  N         0.5592332439        3.4269713060        7.4733143010
  N         1.7534237347        1.4121945468        7.5231812408
  N         2.9862463837        3.4118724687        7.4951543029
  N         5.3662803260        3.3698008519        7.5121829611
  N         7.7170649162        3.3695750424        7.4346605349
  N         8.8802944332        1.3253082625        7.4815825796
  N         6.5396935360        1.3457894333        7.4877016209
  N         4.2122631908        1.3301380827        7.4941865993
  N        10.0518636425        3.3622670704        7.4966035914
  N        11.3121177462        1.3543288367        7.4521269265
  N        12.4583920374        3.4050894152        7.4002428179
  N        13.6674440673        1.3841278912        7.4970426617
  N         5.2799625671        7.5336476964        7.4845830264
  N         4.2013381124        9.5481407546        7.5134424834
  N         0.5795917788       11.6628154644        7.4963257717
  N         1.8248854777        9.5338797732        7.5460329095
  N         2.9832786851        7.5776688400        7.5518904235
  N         4.1314597265        5.5155170746        7.5108747684
  N         1.7715239187        5.5100766693        7.4243120513
  N         0.6304813856        7.5091726198        7.4873273053
