      56
 i =       20, time =       20.000, E =      -152.8271647859
  C         0.5846104162        0.7066209192        7.5014462571
  C         1.7190992683        2.7812055562        7.4796020668
  C         5.3688479503        0.6665474505        7.4418236503
  C         4.1781049800        2.6943375479        7.5314519706
  C         7.6932537500        0.6523990852        7.5032605385
  C         6.5437698808        2.7085181176        7.5262181379
  C         8.8414699704        2.6406858518        7.4949144559
  C        12.4681091753        0.6868166575        7.4488044579
  C        11.3125857107        2.6760765653        7.4038044596
  C        13.6287415734        2.7368082052        7.4183723986
  C         2.9563589381        4.8274399421        7.4519830150
  C         1.7730675648        6.8694640820        7.5353781731
  C         0.7019274511        8.8554519854        7.4628191010
  C         4.1438595333        6.8875949137        7.5469101799
  C         3.0507820951        8.9205024257        7.5435267073
  C         5.3482450949        8.8610128806        7.5334805349
  C        10.0801606972        4.8170272666        7.5749503501
  C         8.9586814228        6.8414508013        7.5424929319
  C         7.7857791559        8.8474858072        7.5112980725
  C         6.4901455438       10.9914609108        7.5347164060
  C        11.2763224431        6.8568353981        7.6164753314
  C        10.1634476454        8.9666660956        7.5078682117
  C        12.4786707225        8.8482690231        7.4762459638
  C        13.6627720244       11.0190297651        7.4942355891
  N         5.3337027029       11.6435784862        7.4368938722
  N         6.5474067508        9.5747184038        7.5904464661
  N         7.7695293000        7.5329176812        7.5351916776
  N         8.9568714339        5.5017257112        7.5189961462
  N         7.6542782991       11.6488708016        7.5605551267
  N         8.9502801369        9.5430156951        7.4508540502
  N        10.1238020235        7.5574491094        7.5913252501
  N        11.2172043986        5.4939909560        7.6313313067
  N        11.3301876678        9.5082132791        7.5735666347
  N        12.4592875797        7.5313156844        7.4539634528
  N        13.6813279981        9.5705421040        7.4357146024
  N        12.4524987140       11.6674712164        7.4989128228
  N         0.5945420085        3.4409105280        7.4411164358
  N         1.7473578703        1.4137324164        7.5316162628
  N         2.9903872526        3.4318469598        7.4859476956
  N         5.3958780082        3.3260378745        7.5412688858
  N         7.7101205706        3.3166751476        7.4252801346
  N         8.8873696727        1.3201717532        7.4931658935
  N         6.5563643789        1.3362176238        7.4955239487
  N         4.1990617198        1.3446814849        7.4862155457
  N        10.0854879627        3.3931751769        7.4965939061
  N        11.3189320338        1.3828880377        7.4128314477
  N        12.4140276307        3.4019024551        7.3242404763
  N        13.6416968836        1.3519025950        7.4812077497
  N         5.3213879607        7.5578192070        7.4825158690
  N         4.2384244840        9.5731466729        7.5317479244
  N         0.5214763046       11.6793136323        7.4910392884
  N         1.8190887042        9.5575569068        7.5609004410
  N         2.9599805861        7.5451936534        7.6021684142
  N         4.0762003554        5.5400445117        7.5280935160
  N         1.8271804537        5.5465588321        7.3829521761
  N         0.6612822326        7.5534195069        7.4683044090
