      56
 i =       44, time =       44.000, E =      -152.8311532558
  C         0.5321234456        0.6965003881        7.5198352451
  C         1.6773670261        2.7377581472        7.4652074134
  C         5.2787138907        0.6235806971        7.4789096281
  C         4.1807205455        2.7100786174        7.4900165387
  C         7.7151718246        0.6027755354        7.5491619278
  C         6.5122720050        2.7030620008        7.4637521697
  C         8.8414511909        2.6571460113        7.4290800569
  C        12.4207969768        0.7223559034        7.3894172580
  C        11.3387592372        2.6935993986        7.3050245390
  C        13.6250628801        2.7652701044        7.2544326341
  C         2.9811982791        4.8868638286        7.4811479014
  C         1.8180867018        6.9106560158        7.4086099867
  C         0.6846428429        8.9412737224        7.5223146329
  C         4.2058462709        6.8168833126        7.5709795203
  C         2.9582271605        8.9216661158        7.6844689819
  C         5.2860992314        8.8098377803        7.5889221393
  C        10.0801442655        4.8721539791        7.6143061185
  C         8.9132862588        6.8341678360        7.6387371775
  C         7.8308702344        8.9252223449        7.5608501990
  C         6.5400098681       11.0013593303        7.5246666364
  C        11.3289986343        6.7689299947        7.6299972682
  C        10.1435601992        8.8674691750        7.5937874272
  C        12.4376444239        8.8485087230        7.5133739555
  C        13.7042078677       11.0631644084        7.4328088049
  N         5.3693498312       11.6204799782        7.3767842607
  N         6.5855858507        9.5793469720        7.5557848298
  N         7.8138002929        7.5929495217        7.6198204716
  N         8.9314987171        5.4904553359        7.5497579750
  N         7.7223048057       11.5857548510        7.6536639840
  N         9.0139679684        9.5680759825        7.4520378303
  N        10.1286709703        7.4744028538        7.6727995166
  N        11.2776060289        5.4331210901        7.8167895249
  N        11.2932360325        9.5110986464        7.5731831292
  N        12.4931440347        7.4773734307        7.4866192851
  N        13.7039043656        9.6318874486        7.4489588694
  N        12.5015318591       11.6565423005        7.4240215200
  N         0.5601185196        3.4291766030        7.3018829195
  N         1.7076240273        1.4139100876        7.5565509661
  N         2.9251255667        3.4418447616        7.4769196101
  N         5.3711044593        3.4065469682        7.5784147609
  N         7.6877676390        3.3261513324        7.4441037476
  N         8.8623833742        1.3103184344        7.5336558665
  N         6.4779632193        1.3043738109        7.4796923733
  N         4.1295998788        1.3457140381        7.4048832638
  N        10.0754742177        3.4046028794        7.4438155268
  N        11.2626411334        1.3506629746        7.3392068120
  N        12.4073357895        3.4234385538        7.1413833360
  N        13.6122669431        1.4065826405        7.4242256594
  N         5.3465202010        7.5110389114        7.5335285150
  N         4.1748162588        9.5137154554        7.6512156436
  N         0.6079924776       11.7136863073        7.4893604056
  N         1.8004307268        9.6604627796        7.5592598541
  N         3.0102024978        7.5259665434        7.6759290423
  N         4.2213016779        5.4660230538        7.5609290343
  N         1.7932443870        5.5584361914        7.3038678666
  N         0.7229303891        7.6352194120        7.3876577298
