      56
 i =       32, time =       32.000, E =      -152.8299485760
  C         0.5732403262        0.7358335094        7.5278455406
  C         1.6647408978        2.7065486881        7.4891876499
  C         5.2902546494        0.6377201304        7.4645198254
  C         4.2323549492        2.6867836078        7.5068916104
  C         7.7313598492        0.6064890171        7.5043944712
  C         6.5143292298        2.6850883231        7.4520716800
  C         8.8529086510        2.6281172637        7.4194871784
  C        12.4503710917        0.6698650452        7.4282989595
  C        11.3246347081        2.6861794954        7.3432065301
  C        13.6173293348        2.7780726067        7.3345002992
  C         2.9795803998        4.9282336725        7.4627997632
  C         1.8024982599        6.8557843220        7.4582338295
  C         0.7291397977        8.9299619921        7.5223955458
  C         4.1948595714        6.8473386038        7.5348189497
  C         2.9907735398        8.9417372293        7.6247491691
  C         5.2725323740        8.8347171154        7.5630288845
  C        10.0949481200        4.8955583876        7.5892682493
  C         8.9108720503        6.8492155519        7.5840003707
  C         7.8842105797        8.8744773178        7.5478980943
  C         6.5240012747       10.9799986516        7.5344573207
  C        11.3290613072        6.8111865857        7.5930686728
  C        10.1359665744        8.8795707427        7.5665237488
  C        12.4200938956        8.8020869080        7.5002707834
  C        13.6384582499       11.0483168083        7.4611339538
  N         5.3661867183       11.6595231103        7.3946841699
  N         6.5412299539        9.5292498236        7.5961767758
  N         7.8240591438        7.5476609144        7.5632216936
  N         8.8890388447        5.5330747126        7.5412695101
  N         7.6812734612       11.6308056830        7.6064353010
  N         9.0125247281        9.5657573404        7.4251851497
  N        10.1282472987        7.5159382095        7.6452464788
  N        11.2806689357        5.5123050697        7.7521242369
  N        11.3154053488        9.5497346665        7.5811622306
  N        12.4363918152        7.4581877964        7.4620567012
  N        13.6688026870        9.5731460688        7.4141446150
  N        12.5191032272       11.7093541616        7.4706314958
  N         0.5105573816        3.4060324038        7.3758401091
  N         1.6827172438        1.3946806898        7.5343619068
  N         2.9382740043        3.4543460541        7.4721363356
  N         5.3488187701        3.3542455568        7.5845309801
  N         7.7103033222        3.3185253373        7.4495547767
  N         8.8524593273        1.2782766867        7.5299866055
  N         6.5060215130        1.3158815591        7.5063376345
  N         4.1832246620        1.3707575208        7.4566650823
  N        10.0979356001        3.4166423715        7.4852821296
  N        11.3107784926        1.3237216729        7.3700344618
  N        12.4952151870        3.3667701258        7.2331545895
  N        13.6128426993        1.4213860622        7.4470984089
  N         5.3444345771        7.4781736885        7.5008416416
  N         4.1320959649        9.5606247218        7.5767800720
  N         0.5723458624       11.7564490958        7.4852512660
  N         1.8963555488        9.6125741444        7.5518977283
  N         3.0043805323        7.5651634420        7.6668634374
  N         4.1413345255        5.5465146954        7.5550647718
  N         1.8188974086        5.5414005736        7.3397889069
  N         0.6638256581        7.5722579672        7.4258638113
