      56
 i =       41, time =       41.000, E =      -152.8212655522
  C         0.5271616060        0.7029813141        7.5258625744
  C         1.6547687308        2.7279620551        7.4736539213
  C         5.2620086244        0.6296863950        7.4810784047
  C         4.1999559637        2.6962656967        7.4917951703
  C         7.7213461581        0.5876177906        7.5349050243
  C         6.4972288392        2.6935952343        7.4505583118
  C         8.8488343148        2.6532268227        7.4165997686
  C        12.4339099646        0.7325188331        7.4003529802
  C        11.3654782117        2.7008928180        7.3103879205
  C        13.6510772419        2.7651581853        7.2753935939
  C         2.9875732437        4.9114455712        7.4796470894
  C         1.8193119732        6.9068221471        7.4156916711
  C         0.7004437258        8.9393421944        7.5314499436
  C         4.2056594377        6.8334587097        7.5560072345
  C         2.9628597389        8.9234069045        7.6758793303
  C         5.2591774299        8.8100130119        7.5827271450
  C        10.0783040467        4.9036983304        7.6064658737
  C         8.9115696525        6.8291733911        7.6248348495
  C         7.8489971406        8.9076576663        7.5612770911
  C         6.5324141512       11.0019605903        7.5265579138
  C        11.3334387583        6.7753217840        7.6112184203
  C        10.1507861267        8.8478625364        7.5940985658
  C        12.4263731059        8.8318659569        7.5125322944
  C        13.6977764921       11.0646701148        7.4375937549
  N         5.3784783041       11.6313263013        7.3782988644
  N         6.5863404248        9.5628772725        7.5688890892
  N         7.8220491002        7.5892273405        7.6024419935
  N         8.9165074092        5.5038118510        7.5491964694
  N         7.7138502594       11.5909284398        7.6420870107
  N         9.0140734905        9.5791795574        7.4386816174
  N        10.1216259647        7.4900745311        7.6685049884
  N        11.2893326142        5.4547021010        7.8086539983
  N        11.2894909280        9.5367903225        7.5756104181
  N        12.4765855008        7.4538233486        7.4780633706
  N        13.6980608340        9.6224523513        7.4353347043
  N        12.5055467438       11.6566412594        7.4380199071
  N         0.5378342465        3.4099045599        7.3219260583
  N         1.7039587584        1.4072711212        7.5488786874
  N         2.9189807825        3.4466091196        7.4737853133
  N         5.3707469435        3.4075352463        7.5863114036
  N         7.7021703881        3.3279495092        7.4497282442
  N         8.8630160898        1.2974701932        7.5364328771
  N         6.4797387939        1.3059764731        7.4885714618
  N         4.1468088115        1.3478230670        7.4181126900
  N        10.0787501161        3.4046666819        7.4563252212
  N        11.2661574247        1.3316757418        7.3462016048
  N        12.4115279938        3.4057497529        7.1644019436
  N        13.6109895369        1.4220382067        7.4290701880
  N         5.3436218950        7.4909540201        7.5247901004
  N         4.1542694466        9.5227299355        7.6294286415
  N         0.6016340844       11.7264039691        7.4871000631
  N         1.8250434725        9.6609864694        7.5518861007
  N         3.0194861835        7.5413202470        7.6799734782
  N         4.2215163161        5.4823442976        7.5621482820
  N         1.7818093446        5.5435726310        7.3095625288
  N         0.7061187170        7.6176992336        7.3967894141
