      56
 i =       15, time =       15.000, E =      -152.8454707848
  C         0.6208266593        0.6729656623        7.4939446636
  C         1.7378652435        2.7677184652        7.4774952383
  C         5.3515601952        0.6662799500        7.4457578984
  C         4.2117372483        2.6698697379        7.5337779136
  C         7.7284899390        0.6377442925        7.5082987863
  C         6.5391102639        2.7154030891        7.5474505440
  C         8.8500863440        2.6602355910        7.5191909493
  C        12.4464364702        0.6785175286        7.4567678123
  C        11.3208475562        2.7084544278        7.4296393285
  C        13.6534345436        2.7635506232        7.4460174183
  C         2.9564411212        4.8437750010        7.4584462140
  C         1.7821241299        6.8639888748        7.5505751235
  C         0.6817847584        8.8530881051        7.4508896194
  C         4.1391896947        6.8767850643        7.5466618650
  C         3.0396474785        8.9400559530        7.5203759880
  C         5.3602309780        8.8768524746        7.5230547738
  C        10.0780917068        4.8033568061        7.5640341571
  C         8.9429846658        6.8340612396        7.5298068885
  C         7.7671666904        8.8491704042        7.5002735270
  C         6.4867944713       11.0185797288        7.5293287268
  C        11.2924010068        6.8519148197        7.6108672136
  C        10.1371043949        8.9542737189        7.4927175051
  C        12.4922612171        8.8634714475        7.4733322229
  C        13.6362991730       11.0069745612        7.5017827405
  N         5.3324329097       11.6580925222        7.4552813005
  N         6.5784440756        9.6008526272        7.5746252300
  N         7.7660735451        7.5133299047        7.5274476175
  N         8.9668157053        5.4984000701        7.5100067157
  N         7.6520041768       11.6583787044        7.5427586141
  N         8.9184240729        9.5490844000        7.4659116504
  N        10.1087380008        7.5745217686        7.5661738631
  N        11.2202052460        5.4998376909        7.5861943544
  N        11.3304051776        9.5375576664        7.5629452826
  N        12.4594018986        7.5202512634        7.4598682577
  N        13.7047972997        9.5920282611        7.4523879563
  N        12.4321048734       11.6410247236        7.5041567160
  N         0.5815201706        3.4356240130        7.4608799555
  N         1.7554424135        1.4163861726        7.5283556661
  N         2.9906966335        3.4187923221        7.4917918689
  N         5.3883524620        3.3482986887        7.5229759613
  N         7.7179723791        3.3442193897        7.4251394426
  N         8.8878826495        1.3269279499        7.4831648254
  N         6.5511435134        1.3430530415        7.4892464581
  N         4.2098054643        1.3319101116        7.4914347596
  N        10.0613444041        3.3690034354        7.4965344167
  N        11.3132400446        1.3703322772        7.4345060535
  N        12.4204975120        3.4059548431        7.3657542070
  N        13.6574288552        1.3658436763        7.4916524384
  N         5.2935347006        7.5508410480        7.4819727668
  N         4.2308897817        9.5560240385        7.5204798847
  N         0.5480605284       11.6624350834        7.4941983658
  N         1.8120834009        9.5409345843        7.5559044943
  N         2.9714018882        7.5626531709        7.5731003302
  N         4.1039341276        5.5246136612        7.5175619945
  N         1.7932769614        5.5259522981        7.4033660849
  N         0.6464510762        7.5289411338        7.4803443935
