      56
 i =       49, time =       49.000, E =      -152.8293339222
  C         0.5762076696        0.7028608092        7.5065507415
  C         1.7163146696        2.7470295633        7.4486169887
  C         5.3023619535        0.6188880773        7.4626099905
  C         4.1661002041        2.7207881547        7.4887768330
  C         7.7090960897        0.6331436513        7.5728701197
  C         6.5272074534        2.7160782932        7.4929870361
  C         8.8252772355        2.6597740434        7.4572029955
  C        12.4017877427        0.6678219952        7.3702493112
  C        11.2719488027        2.6902969358        7.2979119628
  C        13.5839047015        2.7877663049        7.2232285871
  C         2.9648519495        4.8526443138        7.4767232958
  C         1.8146910836        6.8976176140        7.4050151743
  C         0.6662804214        8.9520495066        7.4992988846
  C         4.2102032698        6.7863009083        7.5997535218
  C         2.9641408378        8.9315617568        7.6872247493
  C         5.3458469791        8.8311971847        7.5994625621
  C        10.0902790910        4.7995773038        7.6263890602
  C         8.9139290739        6.8437869289        7.6593107737
  C         7.8136586793        8.9391361397        7.5583215212
  C         6.5506610265       10.9966909435        7.5224019638
  C        11.3353183767        6.7680911223        7.6695316907
  C        10.1245983123        8.8963259548        7.5863170967
  C        12.4649527262        8.8613631208        7.5126134813
  C        13.6887953372       11.0551029536        7.4301294144
  N         5.3510607451       11.6110282695        7.3792403761
  N         6.5686387105        9.6008877125        7.5329006025
  N         7.7993977123        7.5870434869        7.6509214217
  N         8.9465187563        5.4805108648        7.5499339385
  N         7.7286815286       11.6064367543        7.6702276034
  N         9.0070615481        9.5456089638        7.4795289287
  N        10.1453957741        7.4569653681        7.6762548494
  N        11.2576136668        5.4150520419        7.8199147474
  N        11.3083909311        9.4735069823        7.5690294824
  N        12.5046283092        7.5210602784        7.5073432244
  N        13.6967273153        9.6365617711        7.4739423165
  N        12.4987735309       11.6797904827        7.3979524816
  N         0.5748268162        3.4550248675        7.2654952266
  N         1.6994381815        1.4187526715        7.5705926188
  N         2.9472464991        3.4384785184        7.4834020097
  N         5.3587937109        3.3793880557        7.5585591922
  N         7.6685165991        3.3269065963        7.4326328936
  N         8.8504539530        1.3312602657        7.5281621150
  N         6.4894250085        1.3035039838        7.4677035719
  N         4.1177332801        1.3523038502        7.3868733290
  N        10.0683372282        3.4025440275        7.4234127248
  N        11.2699023867        1.3837306462        7.3297596683
  N        12.4278771259        3.4360012048        7.1065227761
  N        13.6079287152        1.3814672699        7.4142187462
  N         5.3496138926        7.5271127701        7.5478905416
  N         4.1926199362        9.5040658479        7.6909960967
  N         0.6146197330       11.7020599507        7.4943378846
  N         1.7934249833        9.6378241609        7.5814423938
  N         2.9948430987        7.5098832046        7.6634793961
  N         4.1884319849        5.4558129497        7.5570826303
  N         1.8361015251        5.5809864556        7.2995215823
  N         0.7342927277        7.6487140440        7.3699650730
