      56
 i =       43, time =       43.000, E =      -152.8280281308
  C         0.5283080277        0.6979184813        7.5220904099
  C         1.6687113603        2.7348432428        7.4681807851
  C         5.2725378055        0.6255845590        7.4802588828
  C         4.1868073669        2.7054930498        7.4904704165
  C         7.7170547605        0.5969167976        7.5442290523
  C         6.5068221291        2.6997094784        7.4587132789
  C         8.8441881098        2.6561314277        7.4242864195
  C        12.4255482007        0.7282549141        7.3931785203
  C        11.3501551766        2.6962367623        7.3065829976
  C        13.6346540905        2.7639965509        7.2614825333
  C         2.9838304395        4.8954284655        7.4809891446
  C         1.8187305530        6.9106134528        7.4105925510
  C         0.6899551416        8.9401893734        7.5259574832
  C         4.2055951394        6.8231376963        7.5655901824
  C         2.9592831929        8.9214474398        7.6821667178
  C         5.2754872241        8.8088936667        7.5868268164
  C        10.0788975443        4.8846593032        7.6116205707
  C         8.9129379368        6.8319583899        7.6341022432
  C         7.8365786213        8.9194729708        7.5611916739
  C         6.5372693093       11.0020587040        7.5252490162
  C        11.3299728125        6.7706044198        7.6230508510
  C        10.1468904745        8.8601512496        7.5943713260
  C        12.4332916693        8.8432564429        7.5132520039
  C        13.7036558371       11.0641633605        7.4341934020
  N         5.3729594701       11.6238288665        7.3770489928
  N         6.5869071951        9.5738467686        7.5603480280
  N         7.8167062280        7.5925284097        7.6137478268
  N         8.9267697875        5.4945265723        7.5496535670
  N         7.7197361565       11.5862015770        7.6498335541
  N         9.0141058808        9.5724746668        7.4471152986
  N        10.1258021828        7.4796475578        7.6715425694
  N        11.2819806717        5.4397538056        7.8146293479
  N        11.2912209385        9.5201792709        7.5740132321
  N        12.4881928195        7.4686175345        7.4834256385
  N        13.7026054484        9.6293184786        7.4441154659
  N        12.5025455784       11.6551448284        7.4289317223
  N         0.5534807572        3.4224588590        7.3088570696
  N         1.7072210126        1.4118855790        7.5538479837
  N         2.9222886328        3.4433272130        7.4757527835
  N         5.3717368996        3.4083130086        7.5815199942
  N         7.6928966861        3.3268186911        7.4462206342
  N         8.8632030007        1.3058942270        7.5347491274
  N         6.4779263161        1.3048515921        7.4826780016
  N         4.1349811811        1.3458663568        7.4092355269
  N        10.0764894094        3.4045014335        7.4481093989
  N        11.2629506836        1.3437261508        7.3414973071
  N        12.4066992639        3.4178642471        7.1491090162
  N        13.6120426872        1.4121076604        7.4259029913
  N         5.3455613836        7.5045052326        7.5305609018
  N         4.1683525454        9.5165378987        7.6436076274
  N         0.6059038247       11.7175464179        7.4885105996
  N         1.8074219766        9.6619276748        7.5562393046
  N         3.0137554188        7.5309987126        7.6776818392
  N         4.2232364135        5.4707050722        7.5614944546
  N         1.7878236839        5.5529705110        7.3054964838
  N         0.7177343701        7.6297676979        7.3908154111
