      56
 i =        8, time =        8.000, E =      -152.8381045335
  C         0.6584213500        0.6451301053        7.4929027437
  C         1.7375447863        2.7031782983        7.4837551306
  C         5.3291707658        0.6531260422        7.4656216625
  C         4.2771740970        2.6507014734        7.5242340729
  C         7.7814090106        0.6389378555        7.5090382422
  C         6.5512514680        2.7280784466        7.5435991056
  C         8.8463846721        2.6697969929        7.5253602079
  C        12.4218603672        0.6468064059        7.4740025067
  C        11.3291001661        2.7187558122        7.4640067075
  C        13.6607500996        2.7988648816        7.4743472963
  C         2.9649671947        4.9003177102        7.4753410697
  C         1.7928096376        6.8348887258        7.5419409837
  C         0.6770565104        8.8623595252        7.4604972654
  C         4.1566210449        6.8403697920        7.5319444367
  C         2.9938709134        8.9631721520        7.5040935061
  C         5.3417703000        8.8771170499        7.5113504718
  C        10.0922280317        4.8225133681        7.5396281748
  C         8.9010119714        6.8391713124        7.5151415930
  C         7.7986085741        8.8537326338        7.4945280945
  C         6.5110295488       11.0551137438        7.5175949904
  C        11.3148842484        6.8357136112        7.5734721424
  C        10.0857649041        8.9279105808        7.4875208200
  C        12.4566472866        8.8608479326        7.4806182783
  C        13.5967000912       11.0233940687        7.5046556781
  N         5.3335378199       11.6842202999        7.4776565686
  N         6.5825982687        9.6103704033        7.5434947772
  N         7.7685663713        7.4866388140        7.5159773499
  N         8.9417598334        5.5033794713        7.5020963925
  N         7.6696791703       11.6647215970        7.5212237191
  N         8.9037803473        9.5594816010        7.4838749342
  N        10.0984025975        7.5675234320        7.5342706858
  N        11.2508946474        5.5147116479        7.5390148558
  N        11.3183661316        9.5797743223        7.5381660013
  N        12.4532373271        7.5007569079        7.4762978629
  N        13.7113125443        9.6026343552        7.4753791054
  N        12.4412972178       11.6397215288        7.5049102915
  N         0.5494447342        3.4202932215        7.4811760286
  N         1.7530831733        1.4027148591        7.5180259071
  N         2.9833661645        3.4102094833        7.4969389262
  N         5.3539733110        3.3834481107        7.5067012449
  N         7.7132055778        3.3853389598        7.4476589810
  N         8.8761019663        1.3248370023        7.4840973765
  N         6.5333842489        1.3477941268        7.4891498064
  N         4.2088325367        1.3326706519        7.4958938562
  N        10.0554928688        3.3683528645        7.4970326945
  N        11.3118892207        1.3458314331        7.4653246633
  N        12.4870395799        3.4039940380        7.4267527077
  N        13.6707910370        1.3910252583        7.4995107328
  N         5.2811404222        7.5222636161        7.4880059072
  N         4.1774497563        9.5490592293        7.5088763957
  N         0.5981341380       11.6655993760        7.4976731612
  N         1.8340682949        9.5354236195        7.5354478581
  N         2.9881216863        7.5791811356        7.5372436979
  N         4.1482929902        5.5105198920        7.5068590738
  N         1.7648892276        5.5021719733        7.4429778086
  N         0.6219889806        7.5006660796        7.4915253410
