      56
 i =       13, time =       13.000, E =      -152.8498305957
  C         0.6362852151        0.6611155412        7.4925434560
  C         1.7420894403        2.7511941802        7.4781994622
  C         5.3428003146        0.6626167295        7.4498831208
  C         4.2329546764        2.6604644048        7.5325883716
  C         7.7476582206        0.6341032997        7.5094578562
  C         6.5417195623        2.7180764923        7.5505951818
  C         8.8522902476        2.6653054604        7.5244520102
  C        12.4359757212        0.6685447456        7.4608644523
  C        11.3213899672        2.7173851185        7.4397594750
  C        13.6585546235        2.7776336066        7.4551019317
  C         2.9581476650        4.8605308086        7.4625151760
  C         1.7871098868        6.8559564750        7.5516745519
  C         0.6767339613        8.8567148427        7.4504432118
  C         4.1420980684        6.8664884531        7.5441452167
  C         3.0279255952        8.9498856958        7.5139559550
  C         5.3606945076        8.8805826809        7.5194433111
  C        10.0811380032        4.8033008161        7.5582486103
  C         8.9309146207        6.8344482008        7.5253196863
  C         7.7715940890        8.8513385404        7.4974032648
  C         6.4912861898       11.0302302440        7.5264647515
  C        11.3007697298        6.8471935717        7.6036646057
  C        10.1201545641        8.9457818138        7.4892386223
  C        12.4885023571        8.8652986139        7.4740977568
  C        13.6202344626       11.0068399599        7.5034778754
  N         5.3322363619       11.6672260890        7.4620308926
  N         6.5854376643        9.6072680343        7.5666995391
  N         7.7673579167        7.5033468975        7.5243856181
  N         8.9628274848        5.4997428541        7.5070901799
  N         7.6537940753       11.6613793828        7.5362253616
  N         8.9099435663        9.5520467520        7.4715499358
  N        10.1042355057        7.5764626111        7.5566177865
  N        11.2269877334        5.5050608005        7.5708909428
  N        11.3299259756        9.5523337442        7.5571309341
  N        12.4578179438        7.5131273859        7.4637372753
  N        13.7116633926        9.5982836920        7.4590876687
  N        12.4307920417       11.6367736628        7.5050541501
  N         0.5701735963        3.4315576770        7.4674066703
  N         1.7546678757        1.4152507962        7.5260526460
  N         2.9885399666        3.4147212103        7.4936207270
  N         5.3777451870        3.3592268055        7.5170930627
  N         7.7183346840        3.3571062004        7.4287233049
  N         8.8843893583        1.3264517276        7.4816219553
  N         6.5454695858        1.3446377598        7.4879906009
  N         4.2120518415        1.3301292747        7.4929055115
  N        10.0547491886        3.3635887124        7.4965110766
  N        11.3124150483        1.3620986031        7.4432900302
  N        12.4375813075        3.4057326441        7.3828149176
  N        13.6630442159        1.3754725899        7.4946696841
  N         5.2849439017        7.5425647929        7.4829601284
  N         4.2174824684        9.5509063593        7.5168018673
  N         0.5640305195       11.6617163649        7.4953097156
  N         1.8174499477        9.5363690269        7.5516431142
  N         2.9777345939        7.5712412209        7.5622739539
  N         4.1179386965        5.5196740849        7.5140239077
  N         1.7809502805        5.5174871344        7.4132245536
  N         0.6382834030        7.5183097408        7.4840681664
