      56
 i =       23, time =       23.000, E =      -152.8415283910
  C         0.5749575003        0.7234147516        7.5083279952
  C         1.7072189419        2.7664156613        7.4829966032
  C         5.3659823726        0.6594221518        7.4440972826
  C         4.1814583597        2.7015663349        7.5268846646
  C         7.6923422811        0.6542606873        7.5002503684
  C         6.5493322845        2.7027517961        7.5065710814
  C         8.8399823386        2.6291284481        7.4745975614
  C        12.4701549821        0.6752728787        7.4447854334
  C        11.3039072033        2.6637181308        7.3881086653
  C        13.6084663592        2.7369661801        7.3980318974
  C         2.9596255595        4.8439470796        7.4512604777
  C         1.7746008669        6.8609729003        7.5186700340
  C         0.7143684911        8.8705956098        7.4764077363
  C         4.1547623669        6.8802062446        7.5435708839
  C         3.0424234347        8.9191156454        7.5620999471
  C         5.3356664256        8.8526087703        7.5407674320
  C        10.0871285234        4.8321583363        7.5794565070
  C         8.9534405037        6.8493716403        7.5514075457
  C         7.8149226441        8.8523191511        7.5201285271
  C         6.5004972143       10.9797395685        7.5365481338
  C        11.2778499336        6.8514055589        7.6124596942
  C        10.1594868769        8.9604477508        7.5207350495
  C        12.4600961550        8.8338332942        7.4810343700
  C        13.6582985444       11.0272203288        7.4873786140
  N         5.3369500300       11.6448194089        7.4251413080
  N         6.5294230432        9.5558097577        7.5965719008
  N         7.7794848377        7.5368600340        7.5405428515
  N         8.9379218762        5.5098923161        7.5250735775
  N         7.6584156693       11.6442446529        7.5720479454
  N         8.9728919309        9.5421713509        7.4420299894
  N        10.1317582054        7.5427593855        7.6066551330
  N        11.2271635488        5.4987639085        7.6624620208
  N        11.3319069796        9.5051873738        7.5776727244
  N        12.4547137269        7.5257350192        7.4533902859
  N        13.6697473530        9.5598076591        7.4265993707
  N        12.4737225023       11.6914613079        7.4935042703
  N         0.5833610130        3.4391154673        7.4264967455
  N         1.7318422939        1.4093267845        7.5321217479
  N         2.9823574630        3.4397346695        7.4818020001
  N         5.3836034711        3.3209227128        7.5538030952
  N         7.7040749307        3.3079723018        7.4302973806
  N         8.8788462335        1.3093812492        7.5025213675
  N         6.5486500150        1.3311503202        7.5002893356
  N         4.1926719868        1.3563538449        7.4813698427
  N        10.0978650173        3.4077259041        7.4959762892
  N        11.3236306799        1.3767023391        7.4004336939
  N        12.4391251439        3.3930023001        7.3002591958
  N        13.6329999321        1.3591002376        7.4730928123
  N         5.3355867017        7.5460318730        7.4850463427
  N         4.2196627861        9.5801988637        7.5405146166
  N         0.5238826836       11.7020581575        7.4890638114
  N         1.8399324496        9.5692369391        7.5604046344
  N         2.9619373047        7.5444125710        7.6205609627
  N         4.0727398763        5.5497363416        7.5353268792
  N         1.8411995331        5.5539764836        7.3724353559
  N         0.6632850288        7.5615199266        7.4588426157
