      56
 i =       18, time =       18.000, E =      -152.8303432302
  C         0.5969933196        0.6934219927        7.4978055914
  C         1.7271784706        2.7816351587        7.4781321782
  C         5.3641124478        0.6683121575        7.4422232786
  C         4.1863130314        2.6856494010        7.5332457548
  C         7.7031561042        0.6469569141        7.5054672906
  C         6.5401005425        2.7115415200        7.5367137552
  C         8.8445761103        2.6491086818        7.5062671769
  C        12.4615647860        0.6875710790        7.4516457623
  C        11.3174204654        2.6890215220        7.4140838779
  C        13.6404428038        2.7443747766        7.4302467031
  C         2.9555796946        4.8278181855        7.4538172645
  C         1.7753293974        6.8704699027        7.5434696201
  C         0.6932759821        8.8514725433        7.4563148959
  C         4.1397996341        6.8866791080        7.5478182468
  C         3.0500631499        8.9263114582        7.5331224775
  C         5.3543555387        8.8676607792        7.5290888978
  C        10.0775369628        4.8096973605        7.5711956919
  C         8.9558039403        6.8371637696        7.5371835582
  C         7.7731163410        8.8469479519        7.5063149713
  C         6.4862538622       11.0014440455        7.5329047380
  C        11.2808213617        6.8566210143        7.6163216655
  C        10.1574319646        8.9643449679        7.5008348779
  C        12.4875795509        8.8560023670        7.4742699785
  C        13.6566881350       11.0132113470        7.4978075980
  N         5.3329101903       11.6470879243        7.4444172746
  N         6.5609816265        9.5864565614        7.5849457443
  N         7.7664802829        7.5268812190        7.5320339589
  N         8.9644955224        5.4988861462        7.5152035333
  N         7.6525139679       11.6526401205        7.5532729375
  N         8.9362296089        9.5449955577        7.4568837883
  N        10.1175417193        7.5659445114        7.5812154275
  N        11.2155654800        5.4944216747        7.6123111079
  N        11.3298962556        9.5171598119        7.5699812546
  N        12.4603008166        7.5291088913        7.4555879391
  N        13.6907765249        9.5793568338        7.4422200392
  N        12.4415979651       11.6543192925        7.5015436702
  N         0.5934823291        3.4398610482        7.4495959274
  N         1.7529778943        1.4155777744        7.5307468952
  N         2.9920812549        3.4264482849        7.4884654153
  N         5.3971971427        3.3332873340        7.5335005134
  N         7.7141848172        3.3261254777        7.4237835033
  N         8.8896102670        1.3245393060        7.4882187494
  N         6.5566471271        1.3393463118        7.4926235681
  N         4.2037430191        1.3382648940        7.4886269400
  N        10.0755551999        3.3826436556        7.4966370890
  N        11.3160586123        1.3804424464        7.4213190258
  N        12.4090588330        3.4047030141        7.3404672135
  N        13.6478935168        1.3543338991        7.4858363655
  N         5.3101911045        7.5584812649        7.4817565442
  N         4.2410423034        9.5663453938        7.5268596051
  N         0.5281732285       11.6694176371        7.4923417019
  N         1.8120745050        9.5503682837        7.5598733779
  N         2.9629347140        7.5502714483        7.5903474095
  N         4.0848832314        5.5335283915        7.5236518979
  N         1.8142761069        5.5390719384        7.3904202642
  N         0.6569653601        7.5449136819        7.4736022100
