      56
 i =        9, time =        9.000, E =      -152.8398273708
  C         0.6566483846        0.6464173508        7.4924335496
  C         1.7401374290        2.7119074819        7.4822673367
  C         5.3306553491        0.6543819795        7.4619681224
  C         4.2710234235        2.6507504309        7.5264515148
  C         7.7777003371        0.6366477111        7.5094954038
  C         6.5498061314        2.7256222031        7.5466009816
  C         8.8488597634        2.6695030141        7.5265092400
  C        12.4226226455        0.6496435157        7.4710808485
  C        11.3260605974        2.7207941485        7.4593317470
  C        13.6611782300        2.7973756940        7.4708251757
  C         2.9634287575        4.8942233983        7.4725609208
  C         1.7928740412        6.8383449993        7.5451764448
  C         0.6755955310        8.8622336896        7.4573163564
  C         4.1532730962        6.8447096156        7.5349732237
  C         3.0000396682        8.9626950147        7.5054494806
  C         5.3481222462        8.8792483828        7.5128770302
  C        10.0901223344        4.8164454557        7.5437923530
  C         8.9059773542        6.8383651615        7.5170647531
  C         7.7928412818        8.8538215492        7.4946177356
  C         6.5067355172       11.0510922664        7.5195348982
  C        11.3132994399        6.8376018019        7.5807113234
  C        10.0905071820        8.9306443222        7.4871068561
  C        12.4650109462        8.8624626273        7.4788536501
  C        13.5979815070       11.0186350191        7.5047382644
  N         5.3328679567       11.6823148732        7.4746677511
  N         6.5853392814        9.6112368692        7.5484433905
  N         7.7690531501        7.4882372736        7.5177543641
  N         8.9464832844        5.5029420081        7.5028180772
  N         7.6650589170       11.6644220910        7.5240705928
  N         8.9031635407        9.5580145067        7.4816430941
  N        10.0990311332        7.5706963935        7.5385419590
  N        11.2458129109        5.5137499828        7.5446937945
  N        11.3222011417        9.5761381320        7.5424075452
  N        12.4540754679        7.5020686312        7.4735390401
  N        13.7137186394        9.6030552503        7.4722083227
  N        12.4381303178       11.6378341066        7.5051633322
  N         0.5514614081        3.4224244936        7.4786801550
  N         1.7528583134        1.4066163633        7.5198367870
  N         2.9842256710        3.4104162122        7.4964090115
  N         5.3569848623        3.3792698190        7.5082808956
  N         7.7146525807        3.3806184723        7.4428292459
  N         8.8770226152        1.3246401950        7.4829456767
  N         6.5350183969        1.3470055627        7.4884228854
  N         4.2104136660        1.3315592375        7.4953466845
  N        10.0532314255        3.3652985379        7.4968480240
  N        11.3119799713        1.3481181176        7.4609493199
  N        12.4785148557        3.4043239042        7.4179067432
  N        13.6701600105        1.3897883970        7.4988227979
  N         5.2795350235        7.5256022751        7.4867509832
  N         4.1850139607        9.5480853944        7.5103412408
  N         0.5928300134       11.6646599002        7.4972475186
  N         1.8317093774        9.5341202038        7.5392255656
  N         2.9870774437        7.5799875142        7.5419918811
  N         4.1432959089        5.5120407500        7.5081053503
  N         1.7660009885        5.5043123407        7.4365250609
  N         0.6242294567        7.5026716862        7.4902078531
