      56
 i =       19, time =       19.000, E =      -152.8274046057
  C         0.5902773843        0.7001689992        7.4995273624
  C         1.7231403371        2.7824248626        7.4787737426
  C         5.3670133088        0.6677505643        7.4418284758
  C         4.1811855500        2.6903133483        7.5324810620
  C         7.6973242185        0.6499449325        7.5043692679
  C         6.5417413275        2.7100986058        7.5317544629
  C         8.8428662127        2.6449064025        7.5008273886
  C        12.4653197502        0.6879462605        7.4501838996
  C        11.3152181973        2.6822859094        7.4089350163
  C        13.6348492827        2.7399054943        7.4244511930
  C         2.9558306294        4.8264820854        7.4527680151
  C         1.7738993767        6.8705124656        7.5397361051
  C         0.6975873708        8.8528656506        7.4593009882
  C         4.1414787835        6.8877488403        7.5475166924
  C         3.0510673339        8.9229646648        7.5381403597
  C         5.3514875291        8.8642849047        7.5312465891
  C        10.0785794957        4.8130952740        7.5731654361
  C         8.9578726637        6.8391361943        7.5397939058
  C         7.7786520900        8.8469602860        7.5087193101
  C         6.4878208117       10.9962610040        7.5338693723
  C        11.2781193161        6.8570778206        7.6167178479
  C        10.1613289918        8.9660658461        7.5042038640
  C        12.4835917275        8.8523674704        7.4751307120
  C        13.6606534624       11.0160934821        7.4961133582
  N         5.3332210728       11.6448925524        7.4406785573
  N         6.5542053025        9.5807348835        7.5878406272
  N         7.7676778916        7.5302588771        7.5335913292
  N         8.9612587212        5.5000349989        7.5170752804
  N         7.6532875659       11.6507047727        7.5568896785
  N         8.9431032638        9.5439003791        7.4538559445
  N        10.1207009392        7.5618979854        7.5862715363
  N        11.2158866415        5.4938405950        7.6216724255
  N        11.3299286298        9.5120709596        7.5718732685
  N        12.4599816778        7.5307055837        7.4546496368
  N        13.6859470794        9.5748767279        7.4389273729
  N        12.4466527125       11.6605191385        7.5003189386
  N         0.5948278905        3.4405822306        7.4454582373
  N         1.7506222750        1.4147701133        7.5312473547
  N         2.9915622406        3.4291510683        7.4872322989
  N         5.3972945374        3.3293145264        7.5373250058
  N         7.7122387319        3.3210686335        7.4243204471
  N         8.8888492649        1.3226459749        7.4905527249
  N         6.5569749335        1.3378221412        7.4940297201
  N         4.2014017124        1.3412901630        7.4874856593
  N        10.0806036583        3.3878960146        7.4966378524
  N        11.3174208076        1.3822352282        7.4170398297
  N        12.4102587314        3.4035612720        7.3322921989
  N        13.6447487372        1.3524588371        7.4835935928
  N         5.3158958341        7.5588273779        7.4820458876
  N         4.2407366118        9.5698626025        7.5292307256
  N         0.5240204978       11.6738091470        7.4916937915
  N         1.8148581728        9.5539036995        7.5605375758
  N         2.9610946882        7.5473085805        7.5962309943
  N         4.0800093403        5.5367583038        7.5258388507
  N         1.8209788544        5.5430162436        7.3865951842
  N         0.6594360739        7.5494638645        7.4710391134
